@<TRIPOS>MOLECULE
R01
   24    23     1     0     0
SMALL
No Charge or Current Charge


@<TRIPOS>ATOM
      1 N          -1.4580    0.0000    0.0000 N.2       1 R01      0.000000
      2 H          -1.9370   -0.7700   -0.4450 H         1 R01      0.000000
      3 CA          0.0000    0.0000    0.0000 C.3       1 R01      0.000000
      4 HA          0.3690    0.8900   -0.5100 H         1 R01      0.000000
      5 CB          0.5360    0.0000    1.4330 C.3       1 R01      0.000000
      6 HB2         0.0790   -0.8460    1.9470 H         1 R01      0.000000
      7 HB3         1.6140   -0.1510    1.3730 H         1 R01      0.000000
      8 CG          0.2460    1.2770    2.2040 C.3       1 R01      0.000000
      9 HG2         0.7010    2.1140    1.6730 H         1 R01      0.000000
     10 HG3        -0.8340    1.4190    2.2470 H         1 R01      0.000000
     11 CD          0.8050    1.2090    3.6160 C.3       1 R01      0.000000
     12 HD2         0.3500    0.3670    4.1370 H         1 R01      0.000000
     13 HD3         1.8840    1.0630    3.5640 H         1 R01      0.000000
     14 NE          0.5340    2.4280    4.3710 N.3       1 R01      0.000000
     15 HE          0.0220    3.1600    3.9000 H         1 R01      0.000000
     16 CZ          0.9150    2.6280    5.6290 C.cat     1 R01      0.000000
     17 NH1         0.6240    3.7700    6.2360 N.3       1 R01      0.000000
     18 HH11        0.1130    4.4860    5.7400 H         1 R01      0.000000
     19 HH12        0.9150    3.9190    7.1920 H         1 R01      0.000000
     20 NH2         1.5840    1.6840    6.2770 N.3       1 R01      0.000000
     21 HH21        1.8020    0.8140    5.8120 H         1 R01      0.000000
     22 HH22        1.8720    1.8390    7.2330 H         1 R01      0.000000
     23 C           0.5510   -1.1980   -0.7660 C.1       1 R01      0.000000
     24 O           0.0240   -2.3060   -0.6670 O.2       1 R01      0.000000
@<TRIPOS>BOND
     1    1    2 1   
     2    1    3 1   
     3    3    4 1   
     4    3    5 1   
     5    3   23 1   
     6    5    6 1   
     7    5    7 1   
     8    5    8 1   
     9    8    9 1   
    10    8   10 1   
    11    8   11 1   
    12   11   12 1   
    13   11   13 1   
    14   11   14 1   
    15   14   15 1   
    16   14   16 1   
    17   16   17 1   
    18   16   20 1   
    19   17   18 1   
    20   17   19 1   
    21   20   21 1   
    22   20   22 1   
    23   23   24 1   
@<TRIPOS>SUBSTRUCTURE
     1 R01         1 TEMP              0 ****  ****    0 ROOT
