@<TRIPOS>MOLECULE
R21
   24    23     1     0     0
SMALL
No Charge or Current Charge


@<TRIPOS>ATOM
      1 N          -1.4580    0.0000    0.0000 N.2       1 R21      0.000000
      2 H          -1.9370   -0.7700   -0.4450 H         1 R21      0.000000
      3 CA          0.0000    0.0000    0.0000 C.3       1 R21      0.000000
      4 HA          0.3690    0.8900   -0.5100 H         1 R21      0.000000
      5 CB          0.5360    0.0000    1.4330 C.3       1 R21      0.000000
      6 HB2         0.0980    0.8600    1.9400 H         1 R21      0.000000
      7 HB3         0.1860   -0.9170    1.9070 H         1 R21      0.000000
      8 CG          2.0510    0.0730    1.5290 C.3       1 R21      0.000000
      9 HG2         2.4740   -0.7880    1.0100 H         1 R21      0.000000
     10 HG3         2.3860    0.9890    1.0430 H         1 R21      0.000000
     11 CD          2.5130    0.0690    2.9770 C.3       1 R21      0.000000
     12 HD2         2.0830    0.9290    3.4890 H         1 R21      0.000000
     13 HD3         2.1700   -0.8470    3.4570 H         1 R21      0.000000
     14 NE          3.9680    0.1380    3.0870 N.3       1 R21      0.000000
     15 HE          4.3800    1.0510    3.2160 H         1 R21      0.000000
     16 CZ          4.7720   -0.9180    3.0280 C.cat     1 R21      0.000000
     17 NH1         4.2640   -2.1300    2.8590 N.3       1 R21      0.000000
     18 HH11        3.2650   -2.2480    2.7750 H         1 R21      0.000000
     19 HH12        4.8790   -2.9310    2.8150 H         1 R21      0.000000
     20 NH2         6.0840   -0.7580    3.1390 N.3       1 R21      0.000000
     21 HH21        6.4680    0.1680    3.2680 H         1 R21      0.000000
     22 HH22        6.6940   -1.5630    3.0940 H         1 R21      0.000000
     23 C           0.5510   -1.1980   -0.7660 C.1       1 R21      0.000000
     24 O           0.0240   -2.3060   -0.6670 O.2       1 R21      0.000000
@<TRIPOS>BOND
     1    1    2 1   
     2    1    3 1   
     3    3    4 1   
     4    3    5 1   
     5    3   23 1   
     6    5    6 1   
     7    5    7 1   
     8    5    8 1   
     9    8    9 1   
    10    8   10 1   
    11    8   11 1   
    12   11   12 1   
    13   11   13 1   
    14   11   14 1   
    15   14   15 1   
    16   14   16 1   
    17   16   17 1   
    18   16   20 1   
    19   17   18 1   
    20   17   19 1   
    21   20   21 1   
    22   20   22 1   
    23   23   24 1   
@<TRIPOS>SUBSTRUCTURE
     1 R21         1 TEMP              0 ****  ****    0 ROOT
