@<TRIPOS>MOLECULE
R25
   24    23     1     0     0
SMALL
No Charge or Current Charge


@<TRIPOS>ATOM
      1 N          -1.4580    0.0000    0.0000 N.2       1 R25      0.000000
      2 H          -1.9370   -0.7700   -0.4450 H         1 R25      0.000000
      3 CA          0.0000    0.0000    0.0000 C.3       1 R25      0.000000
      4 HA          0.3690    0.8900   -0.5100 H         1 R25      0.000000
      5 CB          0.5360    0.0000    1.4330 C.3       1 R25      0.000000
      6 HB2         1.6230    0.0600    1.3700 H         1 R25      0.000000
      7 HB3         0.1510    0.8960    1.9200 H         1 R25      0.000000
      8 CG          0.1430   -1.2250    2.2420 C.3       1 R25      0.000000
      9 HG2        -0.9450   -1.2760    2.2890 H         1 R25      0.000000
     10 HG3         0.5260   -2.1120    1.7380 H         1 R25      0.000000
     11 CD          0.7080   -1.1590    3.6520 C.3       1 R25      0.000000
     12 HD2         0.4860   -2.0930    4.1670 H         1 R25      0.000000
     13 HD3         1.7880   -1.0240    3.5960 H         1 R25      0.000000
     14 NE          0.1380   -0.0550    4.4190 N.3       1 R25      0.000000
     15 HE         -0.5990    0.4790    3.9820 H         1 R25      0.000000
     16 CZ          0.5280    0.2840    5.6430 C.cat     1 R25      0.000000
     17 NH1         1.4930   -0.3980    6.2440 N.3       1 R25      0.000000
     18 HH11        1.9290   -1.1750    5.7690 H         1 R25      0.000000
     19 HH12        1.7870   -0.1380    7.1750 H         1 R25      0.000000
     20 NH2        -0.0490    1.3040    6.2630 N.3       1 R25      0.000000
     21 HH21       -0.7840    1.8210    5.8020 H         1 R25      0.000000
     22 HH22        0.2500    1.5600    7.1940 H         1 R25      0.000000
     23 C           0.5510   -1.1980   -0.7660 C.1       1 R25      0.000000
     24 O           0.0240   -2.3060   -0.6670 O.2       1 R25      0.000000
@<TRIPOS>BOND
     1    1    2 1   
     2    1    3 1   
     3    3    4 1   
     4    3    5 1   
     5    3   23 1   
     6    5    6 1   
     7    5    7 1   
     8    5    8 1   
     9    8    9 1   
    10    8   10 1   
    11    8   11 1   
    12   11   12 1   
    13   11   13 1   
    14   11   14 1   
    15   14   15 1   
    16   14   16 1   
    17   16   17 1   
    18   16   20 1   
    19   17   18 1   
    20   17   19 1   
    21   20   21 1   
    22   20   22 1   
    23   23   24 1   
@<TRIPOS>SUBSTRUCTURE
     1 R25         1 TEMP              0 ****  ****    0 ROOT
