@<TRIPOS>MOLECULE
Y02
   21    21     1     0     0
SMALL
No Charge or Current Charge


@<TRIPOS>ATOM
      1 N          -1.4580    0.0000    0.0000 N.2       1 Y02      0.000000
      2 H          -1.9370   -0.7700   -0.4450 H         1 Y02      0.000000
      3 CA          0.0000    0.0000    0.0000 C.3       1 Y02      0.000000
      4 HA          0.3690    0.8900   -0.5100 H         1 Y02      0.000000
      5 CB          0.5360    0.0000    1.4330 C.3       1 Y02      0.000000
      6 HB2         0.1080   -0.8660    1.9380 H         1 Y02      0.000000
      7 HB3         1.6180   -0.1130    1.3730 H         1 Y02      0.000000
      8 CG          0.2030    1.2530    2.2120 C.ar      1 Y02      0.000000
      9 CD1         0.0560    2.4740    1.5660 C.ar      1 Y02      0.000000
     10 HD1         0.1850    2.5150    0.4840 H         1 Y02      0.000000
     11 CE1        -0.2480    3.6230    2.2700 C.ar      1 Y02      0.000000
     12 HE1        -0.3620    4.5760    1.7550 H         1 Y02      0.000000
     13 CZ         -0.4100    3.5550    3.6490 C.ar      1 Y02      0.000000
     14 OH         -0.7120    4.6940    4.3570 O.3       1 Y02      0.000000
     15 HH         -0.7870    5.4730    3.8010 H         1 Y02      0.000000
     16 CE2        -0.2670    2.3490    4.3100 C.ar      1 Y02      0.000000
     17 HE2        -0.3920    2.2930    5.3910 H         1 Y02      0.000000
     18 CD2         0.0370    1.2100    3.5900 C.ar      1 Y02      0.000000
     19 HD2         0.1510    0.2550    4.1040 H         1 Y02      0.000000
     20 C           0.5510   -1.1980   -0.7660 C.1       1 Y02      0.000000
     21 O           0.0240   -2.3060   -0.6670 O.2       1 Y02      0.000000
@<TRIPOS>BOND
     1    1    2 1   
     2    1    3 1   
     3    3    4 1   
     4    3    5 1   
     5    3   20 1   
     6    5    6 1   
     7    5    7 1   
     8    5    8 1   
     9    8    9 1   
    10    8   18 1   
    11    9   10 1   
    12    9   11 1   
    13   11   12 1   
    14   11   13 1   
    15   13   14 1   
    16   13   16 1   
    17   14   15 1   
    18   16   17 1   
    19   16   18 1   
    20   18   19 1   
    21   20   21 1   
@<TRIPOS>SUBSTRUCTURE
     1 Y02         1 TEMP              0 ****  ****    0 ROOT
