@<TRIPOS>MOLECULE
Y03
   21    21     1     0     0
SMALL
No Charge or Current Charge


@<TRIPOS>ATOM
      1 N          -1.4580    0.0000    0.0000 N.2       1 Y03      0.000000
      2 H          -1.9370   -0.7700   -0.4450 H         1 Y03      0.000000
      3 CA          0.0000    0.0000    0.0000 C.3       1 Y03      0.000000
      4 HA          0.3690    0.8900   -0.5100 H         1 Y03      0.000000
      5 CB          0.5360    0.0000    1.4330 C.3       1 Y03      0.000000
      6 HB2         0.1000    0.8600    1.9410 H         1 Y03      0.000000
      7 HB3         0.1880   -0.9170    1.9090 H         1 Y03      0.000000
      8 CG          2.0440    0.0730    1.5230 C.ar      1 Y03      0.000000
      9 CD1         2.7080    1.2840    1.3810 C.ar      1 Y03      0.000000
     10 HD1         2.1220    2.1860    1.2040 H         1 Y03      0.000000
     11 CE1         4.0840    1.3590    1.4610 C.ar      1 Y03      0.000000
     12 HE1         4.5960    2.3140    1.3470 H         1 Y03      0.000000
     13 CZ          4.8180    0.2010    1.6900 C.ar      1 Y03      0.000000
     14 OH          6.1890    0.2670    1.7720 O.3       1 Y03      0.000000
     15 HH          6.5290    1.1570    1.6570 H         1 Y03      0.000000
     16 CE2         4.1760   -1.0150    1.8350 C.ar      1 Y03      0.000000
     17 HE2         4.7480   -1.9250    2.0140 H         1 Y03      0.000000
     18 CD2         2.7990   -1.0710    1.7510 C.ar      1 Y03      0.000000
     19 HD2         2.2840   -2.0260    1.8640 H         1 Y03      0.000000
     20 C           0.5510   -1.1980   -0.7660 C.1       1 Y03      0.000000
     21 O           0.0240   -2.3060   -0.6670 O.2       1 Y03      0.000000
@<TRIPOS>BOND
     1    1    2 1   
     2    1    3 1   
     3    3    4 1   
     4    3    5 1   
     5    3   20 1   
     6    5    6 1   
     7    5    7 1   
     8    5    8 1   
     9    8    9 1   
    10    8   18 1   
    11    9   10 1   
    12    9   11 1   
    13   11   12 1   
    14   11   13 1   
    15   13   14 1   
    16   13   16 1   
    17   14   15 1   
    18   16   17 1   
    19   16   18 1   
    20   18   19 1   
    21   20   21 1   
@<TRIPOS>SUBSTRUCTURE
     1 Y03         1 TEMP              0 ****  ****    0 ROOT
