@<TRIPOS>MOLECULE
Y04
   21    21     1     0     0
SMALL
No Charge or Current Charge


@<TRIPOS>ATOM
      1 N          -1.4580    0.0000    0.0000 N.2       1 Y04      0.000000
      2 H          -1.9370   -0.7700   -0.4450 H         1 Y04      0.000000
      3 CA          0.0000    0.0000    0.0000 C.3       1 Y04      0.000000
      4 HA          0.3690    0.8900   -0.5100 H         1 Y04      0.000000
      5 CB          0.5360    0.0000    1.4330 C.3       1 Y04      0.000000
      6 HB2         1.6230    0.0600    1.3720 H         1 Y04      0.000000
      7 HB3         0.1500    0.8940    1.9220 H         1 Y04      0.000000
      8 CG          0.1430   -1.2210    2.2340 C.ar      1 Y04      0.000000
      9 CD1         0.9440   -2.3550    2.2420 C.ar      1 Y04      0.000000
     10 HD1         1.8650   -2.3510    1.6590 H         1 Y04      0.000000
     11 CE1         0.5930   -3.4740    2.9710 C.ar      1 Y04      0.000000
     12 HE1         1.2290   -4.3590    2.9720 H         1 Y04      0.000000
     13 CZ         -0.5840   -3.4640    3.7100 C.ar      1 Y04      0.000000
     14 OH         -0.9420   -4.5740    4.4380 O.3       1 Y04      0.000000
     15 HH         -0.3090   -5.2920    4.3630 H         1 Y04      0.000000
     16 CE2        -1.3970   -2.3450    3.7150 C.ar      1 Y04      0.000000
     17 HE2        -2.3210   -2.3340    4.2920 H         1 Y04      0.000000
     18 CD2        -1.0290   -1.2350    2.9800 C.ar      1 Y04      0.000000
     19 HD2        -1.6630   -0.3480    2.9780 H         1 Y04      0.000000
     20 C           0.5510   -1.1980   -0.7660 C.1       1 Y04      0.000000
     21 O           0.0240   -2.3060   -0.6670 O.2       1 Y04      0.000000
@<TRIPOS>BOND
     1    1    2 1   
     2    1    3 1   
     3    3    4 1   
     4    3    5 1   
     5    3   20 1   
     6    5    6 1   
     7    5    7 1   
     8    5    8 1   
     9    8    9 1   
    10    8   18 1   
    11    9   10 1   
    12    9   11 1   
    13   11   12 1   
    14   11   13 1   
    15   13   14 1   
    16   13   16 1   
    17   14   15 1   
    18   16   17 1   
    19   16   18 1   
    20   18   19 1   
    21   20   21 1   
@<TRIPOS>SUBSTRUCTURE
     1 Y04         1 TEMP              0 ****  ****    0 ROOT
