@<TRIPOS>MOLECULE
HD1
   17    17     1     0     0
SMALL
No Charge or Current Charge


@<TRIPOS>ATOM
      1 N          -1.4580    0.0000    0.0000 N.2       1 HD1      0.000000
      2 H          -1.9370   -0.7700   -0.4450 H         1 HD1      0.000000
      3 CA          0.0000    0.0000    0.0000 C.3       1 HD1      0.000000
      4 HA          0.3690    0.8900   -0.5100 H         1 HD1      0.000000
      5 CB          0.5360    0.0000    1.4330 C.3       1 HD1      0.000000
      6 HB2         0.1130   -0.8350    1.9910 H         1 HD1      0.000000
      7 HB3         1.6230   -0.0820    1.4260 H         1 HD1      0.000000
      8 CG          0.2050    1.2410    2.2020 C.2       1 HD1      0.000000
      9 ND1         0.7600    2.4680    1.9100 N.pl3     1 HD1      0.000000
     10 HD1         1.4240    2.6370    1.1680 H         1 HD1      0.000000
     11 CE1         0.2860    3.3720    2.7490 C.2       1 HD1      0.000000
     12 HE1         0.6070    4.4110    2.6810 H         1 HD1      0.000000
     13 NE2        -0.5550    2.7790    3.5720 N.2       1 HD1      0.000000
     14 CD2        -0.6240    1.4450    3.2530 C.2       1 HD1      0.000000
     15 HD2        -1.2710    0.7800    3.8260 H         1 HD1      0.000000
     16 C           0.5510   -1.1980   -0.7660 C.1       1 HD1      0.000000
     17 O           0.0240   -2.3060   -0.6670 O.2       1 HD1      0.000000
@<TRIPOS>BOND
     1    1    2 1   
     2    1    3 1   
     3    3    4 1   
     4    3    5 1   
     5    3   16 1   
     6    5    6 1   
     7    5    7 1   
     8    5    8 1   
     9    8    9 1   
    10    8   14 1   
    11    9   10 1   
    12    9   11 1   
    13   11   12 1   
    14   11   13 1   
    15   13   14 1   
    16   14   15 1   
    17   16   17 1   
@<TRIPOS>SUBSTRUCTURE
     1 HD1         1 TEMP              0 ****  ****    0 ROOT
