@<TRIPOS>MOLECULE
HD3
   17    17     1     0     0
SMALL
No Charge or Current Charge


@<TRIPOS>ATOM
      1 N          -1.4580    0.0000    0.0000 N.2       1 HD3      0.000000
      2 H          -1.9370   -0.7700   -0.4450 H         1 HD3      0.000000
      3 CA          0.0000    0.0000    0.0000 C.3       1 HD3      0.000000
      4 HA          0.3690    0.8900   -0.5100 H         1 HD3      0.000000
      5 CB          0.5360    0.0000    1.4330 C.3       1 HD3      0.000000
      6 HB2         0.1140   -0.8350    1.9910 H         1 HD3      0.000000
      7 HB3         1.6230   -0.0820    1.4250 H         1 HD3      0.000000
      8 CG          0.2050    1.2410    2.2020 C.2       1 HD3      0.000000
      9 ND1        -1.0040    1.4240    2.8360 N.pl3     1 HD3      0.000000
     10 HD3        -1.7590    0.7530    2.8390 H         1 HD3      0.000000
     11 CE1        -1.0120    2.6050    3.4300 C.2       1 HD3      0.000000
     12 HE1        -1.8860    2.9370    3.9890 H         1 HD3      0.000000
     13 NE2         0.1460    3.1940    3.2040 N.2       1 HD3      0.000000
     14 CD2         0.9260    2.3630    2.4380 C.2       1 HD3      0.000000
     15 HD2         1.9280    2.6750    2.1420 H         1 HD3      0.000000
     16 C           0.5510   -1.1980   -0.7660 C.1       1 HD3      0.000000
     17 O           0.0240   -2.3060   -0.6670 O.2       1 HD3      0.000000
@<TRIPOS>BOND
     1    1    2 1   
     2    1    3 1   
     3    3    4 1   
     4    3    5 1   
     5    3   16 1   
     6    5    6 1   
     7    5    7 1   
     8    5    8 1   
     9    8    9 1   
    10    8   14 1   
    11    9   10 1   
    12    9   11 1   
    13   11   12 1   
    14   11   13 1   
    15   13   14 1   
    16   14   15 1   
    17   16   17 1   
@<TRIPOS>SUBSTRUCTURE
     1 HD3         1 TEMP              0 ****  ****    0 ROOT
