@<TRIPOS>MOLECULE
HD5
   17    17     1     0     0
SMALL
No Charge or Current Charge


@<TRIPOS>ATOM
      1 N          -1.4580    0.0000    0.0000 N.2       1 HD5      0.000000
      2 H          -1.9370   -0.7700   -0.4450 H         1 HD5      0.000000
      3 CA          0.0000    0.0000    0.0000 C.3       1 HD5      0.000000
      4 HA          0.3690    0.8900   -0.5100 H         1 HD5      0.000000
      5 CB          0.5360    0.0000    1.4330 C.3       1 HD5      0.000000
      6 HB2         0.1500    0.8620    1.9770 H         1 HD5      0.000000
      7 HB3         0.2380   -0.9150    1.9440 H         1 HD5      0.000000
      8 CG          2.0290    0.0720    1.5200 C.2       1 HD5      0.000000
      9 ND1         2.7240   -0.2540    2.6630 N.pl3     1 HD5      0.000000
     10 HD5         2.2990   -0.5640    3.5250 H         1 HD5      0.000000
     11 CE1         4.0190   -0.0960    2.4470 C.2       1 HD5      0.000000
     12 HE1         4.7410   -0.3040    3.2360 H         1 HD5      0.000000
     13 NE2         4.1880    0.3190    1.2070 N.2       1 HD5      0.000000
     14 CD2         2.9590    0.4330    0.6050 C.2       1 HD5      0.000000
     15 HD2         2.8880    0.7670   -0.4310 H         1 HD5      0.000000
     16 C           0.5510   -1.1980   -0.7660 C.1       1 HD5      0.000000
     17 O           0.0240   -2.3060   -0.6670 O.2       1 HD5      0.000000
@<TRIPOS>BOND
     1    1    2 1   
     2    1    3 1   
     3    3    4 1   
     4    3    5 1   
     5    3   16 1   
     6    5    6 1   
     7    5    7 1   
     8    5    8 1   
     9    8    9 1   
    10    8   14 1   
    11    9   10 1   
    12    9   11 1   
    13   11   12 1   
    14   11   13 1   
    15   13   14 1   
    16   14   15 1   
    17   16   17 1   
@<TRIPOS>SUBSTRUCTURE
     1 HD5         1 TEMP              0 ****  ****    0 ROOT
