@<TRIPOS>MOLECULE
HD7
   17    17     1     0     0
SMALL
No Charge or Current Charge


@<TRIPOS>ATOM
      1 N          -1.4580    0.0000    0.0000 N.2       1 HD7      0.000000
      2 H          -1.9370   -0.7700   -0.4450 H         1 HD7      0.000000
      3 CA          0.0000    0.0000    0.0000 C.3       1 HD7      0.000000
      4 HA          0.3690    0.8900   -0.5100 H         1 HD7      0.000000
      5 CB          0.5360    0.0000    1.4330 C.3       1 HD7      0.000000
      6 HB2         1.6250    0.0290    1.4240 H         1 HD7      0.000000
      7 HB3         0.1540    0.8650    1.9760 H         1 HD7      0.000000
      8 CG          0.1460   -1.2090    2.2240 C.2       1 HD7      0.000000
      9 ND1        -1.1240   -1.3920    2.7270 N.pl3     1 HD7      0.000000
     10 HD7        -1.8880   -0.7420    2.6100 H         1 HD7      0.000000
     11 CE1        -1.1740   -2.5410    3.3780 C.2       1 HD7      0.000000
     12 HE1        -2.0990   -2.8670    3.8520 H         1 HD7      0.000000
     13 NE2         0.0130   -3.1100    3.3150 N.2       1 HD7      0.000000
     14 CD2         0.8580   -2.2980    2.5990 C.2       1 HD7      0.000000
     15 HD2         1.8940   -2.5970    2.4360 H         1 HD7      0.000000
     16 C           0.5510   -1.1980   -0.7660 C.1       1 HD7      0.000000
     17 O           0.0240   -2.3060   -0.6670 O.2       1 HD7      0.000000
@<TRIPOS>BOND
     1    1    2 1   
     2    1    3 1   
     3    3    4 1   
     4    3    5 1   
     5    3   16 1   
     6    5    6 1   
     7    5    7 1   
     8    5    8 1   
     9    8    9 1   
    10    8   14 1   
    11    9   10 1   
    12    9   11 1   
    13   11   12 1   
    14   11   13 1   
    15   13   14 1   
    16   14   15 1   
    17   16   17 1   
@<TRIPOS>SUBSTRUCTURE
     1 HD7         1 TEMP              0 ****  ****    0 ROOT
