@<TRIPOS>MOLECULE
Q01
   17    16     1     0     0
SMALL
No Charge or Current Charge


@<TRIPOS>ATOM
      1 N          -1.4580    0.0000    0.0000 N.2       1 Q01      0.000000
      2 H          -1.9370   -0.7700   -0.4450 H         1 Q01      0.000000
      3 CA          0.0000    0.0000    0.0000 C.3       1 Q01      0.000000
      4 HA          0.3690    0.8900   -0.5100 H         1 Q01      0.000000
      5 CB          0.5360    0.0000    1.4330 C.3       1 Q01      0.000000
      6 HB2         0.0790   -0.8460    1.9470 H         1 Q01      0.000000
      7 HB3         1.6140   -0.1510    1.3730 H         1 Q01      0.000000
      8 CG          0.2460    1.2780    2.2040 C.3       1 Q01      0.000000
      9 HG2         0.7010    2.1170    1.6780 H         1 Q01      0.000000
     10 HG3        -0.8340    1.4210    2.2510 H         1 Q01      0.000000
     11 CD          0.7910    1.2400    3.6180 C.2       1 Q01      0.000000
     12 OE1         0.9730    0.1690    4.1960 O.2       1 Q01      0.000000
     13 NE2         1.0550    2.4150    4.1800 N.am      1 Q01      0.000000
     14 HE21        1.4200    2.4510    5.1210 H         1 Q01      0.000000
     15 HE22        0.8890    3.2670    3.6640 H         1 Q01      0.000000
     16 C           0.5510   -1.1980   -0.7660 C.1       1 Q01      0.000000
     17 O           0.0240   -2.3060   -0.6670 O.2       1 Q01      0.000000
@<TRIPOS>BOND
     1    1    2 1   
     2    1    3 1   
     3    3    4 1   
     4    3    5 1   
     5    3   16 1   
     6    5    6 1   
     7    5    7 1   
     8    5    8 1   
     9    8    9 1   
    10    8   10 1   
    11    8   11 1   
    12   11   12 1   
    13   11   13 1   
    14   13   14 1   
    15   13   15 1   
    16   16   17 1   
@<TRIPOS>SUBSTRUCTURE
     1 Q01         1 TEMP              0 ****  ****    0 ROOT
