@<TRIPOS>MOLECULE
Q03
   17    16     1     0     0
SMALL
No Charge or Current Charge


@<TRIPOS>ATOM
      1 N          -1.4580    0.0000    0.0000 N.2       1 Q03      0.000000
      2 H          -1.9370   -0.7700   -0.4450 H         1 Q03      0.000000
      3 CA          0.0000    0.0000    0.0000 C.3       1 Q03      0.000000
      4 HA          0.3690    0.8900   -0.5100 H         1 Q03      0.000000
      5 CB          0.5360    0.0000    1.4330 C.3       1 Q03      0.000000
      6 HB2         0.0990    0.8610    1.9390 H         1 Q03      0.000000
      7 HB3         0.1850   -0.9170    1.9070 H         1 Q03      0.000000
      8 CG          2.0510    0.0720    1.5290 C.3       1 Q03      0.000000
      9 HG2         2.4770   -0.7880    1.0130 H         1 Q03      0.000000
     10 HG3         2.3880    0.9890    1.0450 H         1 Q03      0.000000
     11 CD          2.5450    0.0710    2.9620 C.2       1 Q03      0.000000
     12 OE1         1.7520    0.0160    3.9020 O.2       1 Q03      0.000000
     13 NE2         3.8610    0.1300    3.1330 N.am      1 Q03      0.000000
     14 HE21        4.2470    0.1320    4.0660 H         1 Q03      0.000000
     15 HE22        4.4700    0.1730    2.3290 H         1 Q03      0.000000
     16 C           0.5510   -1.1980   -0.7660 C.1       1 Q03      0.000000
     17 O           0.0240   -2.3060   -0.6670 O.2       1 Q03      0.000000
@<TRIPOS>BOND
     1    1    2 1   
     2    1    3 1   
     3    3    4 1   
     4    3    5 1   
     5    3   16 1   
     6    5    6 1   
     7    5    7 1   
     8    5    8 1   
     9    8    9 1   
    10    8   10 1   
    11    8   11 1   
    12   11   12 1   
    13   11   13 1   
    14   13   14 1   
    15   13   15 1   
    16   16   17 1   
@<TRIPOS>SUBSTRUCTURE
     1 Q03         1 TEMP              0 ****  ****    0 ROOT
