@<TRIPOS>MOLECULE
M06
   17    16     1     0     0
SMALL
No Charge or Current Charge


@<TRIPOS>ATOM
      1 N          -1.4580    0.0000    0.0000 N.2       1 M06      0.000000
      2 H          -1.9370   -0.7700   -0.4450 H         1 M06      0.000000
      3 CA          0.0000    0.0000    0.0000 C.3       1 M06      0.000000
      4 HA          0.3690    0.8900   -0.5100 H         1 M06      0.000000
      5 CB          0.5360    0.0000    1.4330 C.3       1 M06      0.000000
      6 HB2         0.0790   -0.8450    1.9470 H         1 M06      0.000000
      7 HB3         1.6140   -0.1510    1.3730 H         1 M06      0.000000
      8 CG          0.2460    1.2780    2.2040 C.3       1 M06      0.000000
      9 HG2         0.7000    2.1100    1.6650 H         1 M06      0.000000
     10 HG3        -0.8350    1.4150    2.2390 H         1 M06      0.000000
     11 SD          0.8930    1.2380    3.8860 S.3       1 M06      0.000000
     12 CE          2.6430    1.4750    3.5800 C.3       1 M06      0.000000
     13 HE1         2.7980    2.4290    3.0760 H         1 M06      0.000000
     14 HE2         3.1820    1.4740    4.5280 H         1 M06      0.000000
     15 HE3         3.0150    0.6670    2.9500 H         1 M06      0.000000
     16 C           0.5510   -1.1980   -0.7660 C.1       1 M06      0.000000
     17 O           0.0240   -2.3060   -0.6670 O.2       1 M06      0.000000
@<TRIPOS>BOND
     1    1    2 1   
     2    1    3 1   
     3    3    4 1   
     4    3    5 1   
     5    3   16 1   
     6    5    6 1   
     7    5    7 1   
     8    5    8 1   
     9    8    9 1   
    10    8   10 1   
    11    8   11 1   
    12   11   12 1   
    13   12   13 1   
    14   12   14 1   
    15   12   15 1   
    16   16   17 1   
@<TRIPOS>SUBSTRUCTURE
     1 M06         1 TEMP              0 ****  ****    0 ROOT
