@<TRIPOS>MOLECULE
M09
   17    16     1     0     0
SMALL
No Charge or Current Charge


@<TRIPOS>ATOM
      1 N          -1.4580    0.0000    0.0000 N.2       1 M09      0.000000
      2 H          -1.9370   -0.7700   -0.4450 H         1 M09      0.000000
      3 CA          0.0000    0.0000    0.0000 C.3       1 M09      0.000000
      4 HA          0.3690    0.8900   -0.5100 H         1 M09      0.000000
      5 CB          0.5360    0.0000    1.4330 C.3       1 M09      0.000000
      6 HB2         0.0990    0.8600    1.9400 H         1 M09      0.000000
      7 HB3         0.1860   -0.9170    1.9070 H         1 M09      0.000000
      8 CG          2.0510    0.0720    1.5290 C.3       1 M09      0.000000
      9 HG2         2.4650   -0.7890    1.0040 H         1 M09      0.000000
     10 HG3         2.3780    0.9890    1.0370 H         1 M09      0.000000
     11 SD          2.6430    0.0690    3.2310 S.3       1 M09      0.000000
     12 CE          2.4060   -1.6520    3.6690 C.3       1 M09      0.000000
     13 HE1         2.9950   -2.2810    3.0020 H         1 M09      0.000000
     14 HE2         2.7280   -1.8130    4.6980 H         1 M09      0.000000
     15 HE3         1.3510   -1.9100    3.5740 H         1 M09      0.000000
     16 C           0.5510   -1.1980   -0.7660 C.1       1 M09      0.000000
     17 O           0.0240   -2.3060   -0.6670 O.2       1 M09      0.000000
@<TRIPOS>BOND
     1    1    2 1   
     2    1    3 1   
     3    3    4 1   
     4    3    5 1   
     5    3   16 1   
     6    5    6 1   
     7    5    7 1   
     8    5    8 1   
     9    8    9 1   
    10    8   10 1   
    11    8   11 1   
    12   11   12 1   
    13   12   13 1   
    14   12   14 1   
    15   12   15 1   
    16   16   17 1   
@<TRIPOS>SUBSTRUCTURE
     1 M09         1 TEMP              0 ****  ****    0 ROOT
