@<TRIPOS>MOLECULE
M11
   17    16     1     0     0
SMALL
No Charge or Current Charge


@<TRIPOS>ATOM
      1 N          -1.4580    0.0000    0.0000 N.2       1 M11      0.000000
      2 H          -1.9370   -0.7700   -0.4450 H         1 M11      0.000000
      3 CA          0.0000    0.0000    0.0000 C.3       1 M11      0.000000
      4 HA          0.3690    0.8900   -0.5100 H         1 M11      0.000000
      5 CB          0.5360    0.0000    1.4330 C.3       1 M11      0.000000
      6 HB2         0.0990    0.8600    1.9400 H         1 M11      0.000000
      7 HB3         0.1860   -0.9170    1.9070 H         1 M11      0.000000
      8 CG          2.0510    0.0720    1.5290 C.3       1 M11      0.000000
      9 HG2         2.3300   -0.0380    2.5770 H         1 M11      0.000000
     10 HG3         2.4670   -0.7560    0.9530 H         1 M11      0.000000
     11 SD          2.7160    1.6250    0.8990 S.3       1 M11      0.000000
     12 CE          2.2880    2.7410    2.2330 C.3       1 M11      0.000000
     13 HE1         2.7630    2.4050    3.1540 H         1 M11      0.000000
     14 HE2         2.6340    3.7460    1.9920 H         1 M11      0.000000
     15 HE3         1.2060    2.7520    2.3650 H         1 M11      0.000000
     16 C           0.5510   -1.1980   -0.7660 C.1       1 M11      0.000000
     17 O           0.0240   -2.3060   -0.6670 O.2       1 M11      0.000000
@<TRIPOS>BOND
     1    1    2 1   
     2    1    3 1   
     3    3    4 1   
     4    3    5 1   
     5    3   16 1   
     6    5    6 1   
     7    5    7 1   
     8    5    8 1   
     9    8    9 1   
    10    8   10 1   
    11    8   11 1   
    12   11   12 1   
    13   12   13 1   
    14   12   14 1   
    15   12   15 1   
    16   16   17 1   
@<TRIPOS>SUBSTRUCTURE
     1 M11         1 TEMP              0 ****  ****    0 ROOT
