@<TRIPOS>MOLECULE
T02
   14    13     1     0     0
SMALL
No Charge or Current Charge


@<TRIPOS>ATOM
      1 N          -1.4580    0.0000    0.0000 N.2       1 T02      0.000000
      2 H          -1.9370   -0.7650   -0.4530 H         1 T02      0.000000
      3 CA          0.0000    0.0000    0.0000 C.3       1 T02      0.000000
      4 HA          0.3600    0.8950   -0.5070 H         1 T02      0.000000
      5 CB          0.5640   -0.0150    1.4330 C.3       1 T02      0.000000
      6 HB          0.1410    0.8260    1.9820 H         1 T02      0.000000
      7 CG2         0.1990   -1.3140    2.1360 C.3       1 T02      0.000000
      8 HG21        0.6220   -2.1560    1.5880 H         1 T02      0.000000
      9 HG22        0.5990   -1.3040    3.1500 H         1 T02      0.000000
     10 HG23       -0.8860   -1.4140    2.1750 H         1 T02      0.000000
     11 OG1         1.9920    0.1030    1.3890 O.3       1 T02      0.000000
     12 HG1         2.3410    0.1090    2.2840 H         1 T02      0.000000
     13 C           0.5510   -1.1980   -0.7660 C.1       1 T02      0.000000
     14 O           0.0240   -2.3060   -0.6670 O.2       1 T02      0.000000
@<TRIPOS>BOND
     1    1    2 1   
     2    1    3 1   
     3    3    4 1   
     4    3    5 1   
     5    3   13 1   
     6    5    6 1   
     7    5    7 1   
     8    5   11 1   
     9    7    8 1   
    10    7    9 1   
    11    7   10 1   
    12   11   12 1   
    13   13   14 1   
@<TRIPOS>SUBSTRUCTURE
     1 T02         1 TEMP              0 ****  ****    0 ROOT
