@<TRIPOS>MOLECULE
T03
   14    13     1     0     0
SMALL
No Charge or Current Charge


@<TRIPOS>ATOM
      1 N          -1.4580    0.0000    0.0000 N.2       1 T03      0.000000
      2 H          -1.9370   -0.7650   -0.4530 H         1 T03      0.000000
      3 CA          0.0000    0.0000    0.0000 C.3       1 T03      0.000000
      4 HA          0.3600    0.8950   -0.5070 H         1 T03      0.000000
      5 CB          0.5640   -0.0150    1.4330 C.3       1 T03      0.000000
      6 HB          0.1390   -0.8660    1.9650 H         1 T03      0.000000
      7 CG2         2.0800   -0.1390    1.4080 C.3       1 T03      0.000000
      8 HG21        2.5060    0.7120    0.8760 H         1 T03      0.000000
      9 HG22        2.4610   -0.1560    2.4300 H         1 T03      0.000000
     10 HG23        2.3610   -1.0620    0.9010 H         1 T03      0.000000
     11 OG1         0.2090    1.2020    2.1020 O.3       1 T03      0.000000
     12 HG1         0.5480    1.1850    3.0000 H         1 T03      0.000000
     13 C           0.5510   -1.1980   -0.7660 C.1       1 T03      0.000000
     14 O           0.0240   -2.3060   -0.6670 O.2       1 T03      0.000000
@<TRIPOS>BOND
     1    1    2 1   
     2    1    3 1   
     3    3    4 1   
     4    3    5 1   
     5    3   13 1   
     6    5    6 1   
     7    5    7 1   
     8    5   11 1   
     9    7    8 1   
    10    7    9 1   
    11    7   10 1   
    12   11   12 1   
    13   13   14 1   
@<TRIPOS>SUBSTRUCTURE
     1 T03         1 TEMP              0 ****  ****    0 ROOT
