@<TRIPOS>MOLECULE
A01
   10     9     1     0     0
SMALL
No Charge or Current Charge


@<TRIPOS>ATOM
      1 N          -1.4580    0.0000    0.0000 N.2       1 A01      0.000000
      2 H          -1.9370   -0.7700   -0.4440 H         1 A01      0.000000
      3 CA          0.0000    0.0000    0.0000 C.3       1 A01      0.000000
      4 HA          0.3490    0.9010   -0.5040 H         1 A01      0.000000
      5 CB          0.5400    0.0010    1.4380 C.3       1 A01      0.000000
      6 HB1         0.2060   -0.9000    1.9530 H         1 A01      0.000000
      7 HB2         1.6300    0.0250    1.4170 H         1 A01      0.000000
      8 HB3         0.1680    0.8790    1.9660 H         1 A01      0.000000
      9 C           0.5510   -1.1980   -0.7660 C.1       1 A01      0.000000
     10 O           0.0240   -2.3060   -0.6670 O.2       1 A01      0.000000
@<TRIPOS>BOND
     1    1    2 1   
     2    1    3 1   
     3    3    4 1   
     4    3    5 1   
     5    3    9 1   
     6    5    6 1   
     7    5    7 1   
     8    5    8 1   
     9    9   10 1   
@<TRIPOS>SUBSTRUCTURE
     1 A01         1 TEMP              0 ****  ****    0 ROOT
