@<TRIPOS>MOLECULE
D05
   12    11     1     0     0
SMALL
No Charge or Current Charge


@<TRIPOS>ATOM
      1 N          -1.4580    0.0000    0.0000 N.2       1 D05      0.000000
      2 H          -1.9370   -0.7700   -0.4450 H         1 D05      0.000000
      3 CA          0.0000    0.0000    0.0000 C.3       1 D05      0.000000
      4 HA          0.3690    0.8900   -0.5100 H         1 D05      0.000000
      5 CB          0.5360    0.0000    1.4330 C.3       1 D05      0.000000
      6 HB2         1.6240    0.0520    1.3830 H         1 D05      0.000000
      7 HB3         0.1530    0.8880    1.9350 H         1 D05      0.000000
      8 CG          0.1250   -1.2350    2.2090 C.2       1 D05      0.000000
      9 OD1        -0.7270   -1.9980    1.7050 O.co2     1 D05      0.000000
     10 OD2         0.6550   -1.4430    3.3210 O.co2     1 D05      0.000000
     11 C           0.5510   -1.1980   -0.7660 C.1       1 D05      0.000000
     12 O           0.0240   -2.3060   -0.6670 O.2       1 D05      0.000000
@<TRIPOS>BOND
     1    1    2 1   
     2    1    3 1   
     3    3    4 1   
     4    3    5 1   
     5    3   11 1   
     6    5    6 1   
     7    5    7 1   
     8    5    8 1   
     9    8    9 1   
    10    8   10 1   
    11   11   12 1   
@<TRIPOS>SUBSTRUCTURE
     1 D05         1 TEMP              0 ****  ****    0 ROOT
