@<TRIPOS>MOLECULE
G01
    7     6     1     0     0
SMALL
No Charge or Current Charge


@<TRIPOS>ATOM
      1 N          29.5200   19.1560   55.0490 N.2       1 G01      0.000000
      2 H          29.3770   19.7300   54.2220 H         1 G01      0.000000
      3 CA         30.8660   19.1190   55.6270 C.3       1 G01      0.000000
      4 HA         30.8230   19.4660   56.6600 H         1 G01      0.000000
      5 HA3        31.2250   18.0900   55.6360 H         1 G01      0.000000
      6 C          31.9000   19.9770   54.8800 C.1       1 G01      0.000000
      7 O          31.5940   20.6360   53.8750 O.2       1 G01      0.000000
@<TRIPOS>BOND
     1    1    2 1   
     2    1    3 1   
     3    3    4 1   
     4    3    5 1   
     5    3    6 1   
     6    6    7 1   
@<TRIPOS>SUBSTRUCTURE
     1 G01         1 TEMP              0 ****  ****    0 ROOT
