@<TRIPOS>MOLECULE
HD6
   17    17     1     0     0
SMALL
No Charge or Current Charge


@<TRIPOS>ATOM
      1 N          -1.4580    0.0000    0.0000 N.2       1 HD6      0.000000
      2 H          -1.9370   -0.7700   -0.4450 H         1 HD6      0.000000
      3 CA          0.0000    0.0000    0.0000 C.3       1 HD6      0.000000
      4 HA          0.3690    0.8900   -0.5100 H         1 HD6      0.000000
      5 CB          0.5360    0.0000    1.4330 C.3       1 HD6      0.000000
      6 HB2         0.1500    0.8610    1.9780 H         1 HD6      0.000000
      7 HB3         0.2380   -0.9160    1.9430 H         1 HD6      0.000000
      8 CG          2.0290    0.0720    1.5200 C.2       1 HD6      0.000000
      9 ND1         2.7520    1.1410    1.0380 N.pl3     1 HD6      0.000000
     10 HD6         2.3490    1.9530    0.5930 H         1 HD6      0.000000
     11 CE1         4.0390    0.9300    1.2510 C.2       1 HD6      0.000000
     12 HE1         4.7800    1.6660    0.9390 H         1 HD6      0.000000
     13 NE2         4.1770   -0.2350    1.8530 N.2       1 HD6      0.000000
     14 CD2         2.9350   -0.7930    2.0320 C.2       1 HD6      0.000000
     15 HD2         2.8390   -1.7660    2.5150 H         1 HD6      0.000000
     16 C           0.5510   -1.1980   -0.7660 C.1       1 HD6      0.000000
     17 O           0.0240   -2.3060   -0.6670 O.2       1 HD6      0.000000
@<TRIPOS>BOND
     1    1    2 1   
     2    1    3 1   
     3    3    4 1   
     4    3    5 1   
     5    3   16 1   
     6    5    6 1   
     7    5    7 1   
     8    5    8 1   
     9    8    9 1   
    10    8   14 1   
    11    9   10 1   
    12    9   11 1   
    13   11   12 1   
    14   11   13 1   
    15   13   14 1   
    16   14   15 1   
    17   16   17 1   
@<TRIPOS>SUBSTRUCTURE
     1 HD6         1 TEMP              0 ****  ****    0 ROOT
