@<TRIPOS>MOLECULE
HD8
   17    17     1     0     0
SMALL
No Charge or Current Charge


@<TRIPOS>ATOM
      1 N          -1.4580    0.0000    0.0000 N.2       1 HD8      0.000000
      2 H          -1.9370   -0.7700   -0.4450 H         1 HD8      0.000000
      3 CA          0.0000    0.0000    0.0000 C.3       1 HD8      0.000000
      4 HA          0.3690    0.8900   -0.5100 H         1 HD8      0.000000
      5 CB          0.5360    0.0000    1.4330 C.3       1 HD8      0.000000
      6 HB2         1.6250    0.0300    1.4260 H         1 HD8      0.000000
      7 HB3         0.1530    0.8650    1.9750 H         1 HD8      0.000000
      8 CG          0.1460   -1.2090    2.2240 C.2       1 HD8      0.000000
      9 ND1         0.7690   -2.4290    2.0760 N.pl3     1 HD8      0.000000
     10 HD8         1.5280   -2.6130    1.4360 H         1 HD8      0.000000
     11 CE1         0.2170   -3.3040    2.8980 C.2       1 HD8      0.000000
     12 HE1         0.5730   -4.3330    2.9300 H         1 HD8      0.000000
     13 NE2        -0.7390   -2.6980    3.5740 N.2       1 HD8      0.000000
     14 CD2        -0.8050   -1.3870    3.1710 C.2       1 HD8      0.000000
     15 HD2        -1.5400   -0.7160    3.6160 H         1 HD8      0.000000
     16 C           0.5510   -1.1980   -0.7660 C.1       1 HD8      0.000000
     17 O           0.0240   -2.3060   -0.6670 O.2       1 HD8      0.000000
@<TRIPOS>BOND
     1    1    2 1   
     2    1    3 1   
     3    3    4 1   
     4    3    5 1   
     5    3   16 1   
     6    5    6 1   
     7    5    7 1   
     8    5    8 1   
     9    8    9 1   
    10    8   14 1   
    11    9   10 1   
    12    9   11 1   
    13   11   12 1   
    14   11   13 1   
    15   13   14 1   
    16   14   15 1   
    17   16   17 1   
@<TRIPOS>SUBSTRUCTURE
     1 HD8         1 TEMP              0 ****  ****    0 ROOT
