@<TRIPOS>MOLECULE
HE2
   17    17     1     0     0
SMALL
No Charge or Current Charge


@<TRIPOS>ATOM
      1 N          -1.4580    0.0000    0.0000 N.2       1 HE2      0.000000
      2 H          -1.9370   -0.7700   -0.4450 H         1 HE2      0.000000
      3 CA          0.0000    0.0000    0.0000 C.3       1 HE2      0.000000
      4 HA          0.3690    0.8900   -0.5100 H         1 HE2      0.000000
      5 CB          0.5360    0.0000    1.4330 C.3       1 HE2      0.000000
      6 HB2         0.1120   -0.8350    1.9900 H         1 HE2      0.000000
      7 HB3         1.6230   -0.0830    1.4270 H         1 HE2      0.000000
      8 CG          0.2050    1.2410    2.2020 C.2       1 HE2      0.000000
      9 ND1         0.3240    1.3220    3.5720 N.2       1 HE2      0.000000
     10 CE1        -0.0360    2.5290    3.9710 C.2       1 HE2      0.000000
     11 HE2        -0.0120    2.7920    5.0280 H         1 HE2      0.000000
     12 NE2        -0.3820    3.2340    2.9120 N.pl3     1 HE2      0.000000
     13 H1         -0.7000    4.1930    2.9120 H         1 HE2      0.000000
     14 CD2        -0.2410    2.4520    1.7920 C.2       1 HE2      0.000000
     15 HD2        -0.4810    2.8590    0.8090 H         1 HE2      0.000000
     16 C           0.5510   -1.1980   -0.7660 C.1       1 HE2      0.000000
     17 O           0.0240   -2.3060   -0.6670 O.2       1 HE2      0.000000
@<TRIPOS>BOND
     1    1    2 1   
     2    1    3 1   
     3    3    4 1   
     4    3    5 1   
     5    3   16 1   
     6    5    6 1   
     7    5    7 1   
     8    5    8 1   
     9    8    9 1   
    10    8   14 1   
    11    9   10 1   
    12   10   11 1   
    13   10   12 1   
    14   12   13 1   
    15   12   14 1   
    16   14   15 1   
    17   16   17 1   
@<TRIPOS>SUBSTRUCTURE
     1 HE2         1 TEMP              0 ****  ****    0 ROOT
