@<TRIPOS>MOLECULE
I01
   19    18     1     0     0
SMALL
No Charge or Current Charge


@<TRIPOS>ATOM
      1 N          -1.4580    0.0000    0.0000 N.2       1 I01      0.000000
      2 H          -1.9370   -0.7650   -0.4530 H         1 I01      0.000000
      3 CA          0.0000    0.0000    0.0000 C.3       1 I01      0.000000
      4 HA          0.3460    0.8950   -0.5170 H         1 I01      0.000000
      5 CB          0.5640   -0.0150    1.4330 C.3       1 I01      0.000000
      6 HB          0.1380   -0.8720    1.9540 H         1 I01      0.000000
      7 CG2         2.0800   -0.1390    1.4080 C.3       1 I01      0.000000
      8 HG21        2.5070    0.7180    0.8870 H         1 I01      0.000000
      9 HG22        2.4600   -0.1690    2.4290 H         1 I01      0.000000
     10 HG23        2.3620   -1.0550    0.8890 H         1 I01      0.000000
     11 CG1         0.1950    1.2770    2.1650 C.3       1 I01      0.000000
     12 HG12        0.7540    2.0860    1.6950 H         1 I01      0.000000
     13 HG13       -0.8730    1.4390    2.0170 H         1 I01      0.000000
     14 CD1         0.5000    1.2480    3.6460 C.3       1 I01      0.000000
     15 HD11        1.5680    1.0860    3.7950 H         1 I01      0.000000
     16 HD12        0.2110    2.1980    4.0960 H         1 I01      0.000000
     17 HD13       -0.0590    0.4390    4.1170 H         1 I01      0.000000
     18 C           0.5510   -1.1980   -0.7660 C.1       1 I01      0.000000
     19 O           0.0240   -2.3060   -0.6670 O.2       1 I01      0.000000
@<TRIPOS>BOND
     1    1    2 1   
     2    1    3 1   
     3    3    4 1   
     4    3    5 1   
     5    3   18 1   
     6    5    6 1   
     7    5    7 1   
     8    5   11 1   
     9    7    8 1   
    10    7    9 1   
    11    7   10 1   
    12   11   12 1   
    13   11   13 1   
    14   11   14 1   
    15   14   15 1   
    16   14   16 1   
    17   14   17 1   
    18   18   19 1   
@<TRIPOS>SUBSTRUCTURE
     1 I01         1 TEMP              0 ****  ****    0 ROOT
