@<TRIPOS>MOLECULE
I04
   19    18     1     0     0
SMALL
No Charge or Current Charge


@<TRIPOS>ATOM
      1 N          -1.4580    0.0000    0.0000 N.2       1 I04      0.000000
      2 H          -1.9370   -0.7650   -0.4530 H         1 I04      0.000000
      3 CA          0.0000    0.0000    0.0000 C.3       1 I04      0.000000
      4 HA          0.3460    0.8950   -0.5170 H         1 I04      0.000000
      5 CB          0.5640   -0.0150    1.4330 C.3       1 I04      0.000000
      6 HB          0.1590    0.8460    1.9640 H         1 I04      0.000000
      7 CG2         0.1570   -1.2920    2.1520 C.3       1 I04      0.000000
      8 HG21        0.5620   -2.1540    1.6210 H         1 I04      0.000000
      9 HG22        0.5460   -1.2770    3.1700 H         1 I04      0.000000
     10 HG23       -0.9300   -1.3630    2.1810 H         1 I04      0.000000
     11 CG1         2.0920    0.0600    1.4060 C.3       1 I04      0.000000
     12 HG12        2.4410   -0.0840    2.4280 H         1 I04      0.000000
     13 HG13        2.4460   -0.7610    0.7810 H         1 I04      0.000000
     14 CD1         2.6290    1.3690    0.8700 C.3       1 I04      0.000000
     15 HD11        2.2760    2.1910    1.4940 H         1 I04      0.000000
     16 HD12        3.7190    1.3470    0.8810 H         1 I04      0.000000
     17 HD13        2.2800    1.5140   -0.1530 H         1 I04      0.000000
     18 C           0.5510   -1.1980   -0.7660 C.1       1 I04      0.000000
     19 O           0.0240   -2.3060   -0.6670 O.2       1 I04      0.000000
@<TRIPOS>BOND
     1    1    2 1   
     2    1    3 1   
     3    3    4 1   
     4    3    5 1   
     5    3   18 1   
     6    5    6 1   
     7    5    7 1   
     8    5   11 1   
     9    7    8 1   
    10    7    9 1   
    11    7   10 1   
    12   11   12 1   
    13   11   13 1   
    14   11   14 1   
    15   14   15 1   
    16   14   16 1   
    17   14   17 1   
    18   18   19 1   
@<TRIPOS>SUBSTRUCTURE
     1 I04         1 TEMP              0 ****  ****    0 ROOT
