@<TRIPOS>MOLECULE
K07
   22    21     1     0     0
SMALL
No Charge or Current Charge


@<TRIPOS>ATOM
      1 N          -1.4580    0.0000    0.0000 N.2       1 K07      0.000000
      2 H          -1.9370   -0.7700   -0.4450 H         1 K07      0.000000
      3 CA          0.0000    0.0000    0.0000 C.3       1 K07      0.000000
      4 HA          0.3690    0.8900   -0.5100 H         1 K07      0.000000
      5 CB          0.5360    0.0000    1.4330 C.3       1 K07      0.000000
      6 HB2         0.0790   -0.8460    1.9470 H         1 K07      0.000000
      7 HB3         1.6140   -0.1510    1.3730 H         1 K07      0.000000
      8 CG          0.2460    1.2770    2.2040 C.3       1 K07      0.000000
      9 HG2         0.7010    2.1140    1.6730 H         1 K07      0.000000
     10 HG3        -0.8340    1.4190    2.2470 H         1 K07      0.000000
     11 CD          0.8050    1.2090    3.6160 C.3       1 K07      0.000000
     12 HD2         0.4450    2.0730    4.1750 H         1 K07      0.000000
     13 HD3         0.4450    0.2950    4.0890 H         1 K07      0.000000
     14 CE          2.3250    1.2090    3.6080 C.3       1 K07      0.000000
     15 HE2         2.6720    1.0560    4.6300 H         1 K07      0.000000
     16 HE3         2.6640    0.3830    2.9830 H         1 K07      0.000000
     17 NZ          2.8770    2.4890    3.0820 N.4       1 K07      0.000000
     18 HZ1         2.5640    3.2540    3.6610 H         1 K07      0.000000
     19 HZ2         3.8860    2.4500    3.0930 H         1 K07      0.000000
     20 HZ3         2.5560    2.6300    2.1350 H         1 K07      0.000000
     21 C           0.5510   -1.1980   -0.7660 C.1       1 K07      0.000000
     22 O           0.0240   -2.3060   -0.6670 O.2       1 K07      0.000000
@<TRIPOS>BOND
     1    1    2 1   
     2    1    3 1   
     3    3    4 1   
     4    3    5 1   
     5    3   21 1   
     6    5    6 1   
     7    5    7 1   
     8    5    8 1   
     9    8    9 1   
    10    8   10 1   
    11    8   11 1   
    12   11   12 1   
    13   11   13 1   
    14   11   14 1   
    15   14   15 1   
    16   14   16 1   
    17   14   17 1   
    18   17   18 1   
    19   17   19 1   
    20   17   20 1   
    21   21   22 1   
@<TRIPOS>SUBSTRUCTURE
     1 K07         1 TEMP              0 ****  ****    0 ROOT
