@<TRIPOS>MOLECULE
K29
   21    20     1     0     0
SMALL
No Charge or Current Charge


@<TRIPOS>ATOM
      1 N          -1.4580    0.0000    0.0000 N.2       1 K29      0.000000
      2 H          -1.9370   -0.7700   -0.4450 H         1 K29      0.000000
      3 CA          0.0000    0.0000    0.0000 C.3       1 K29      0.000000
      4 HA          0.3690    0.8900   -0.5100 H         1 K29      0.000000
      5 CB          0.5360    0.0000    1.4330 C.3       1 K29      0.000000
      6 HB2         0.1510   -0.8960    1.9200 H         1 K29      0.000000
      7 HB3         1.6230   -0.0600    1.3700 H         1 K29      0.000000
      8 CG          0.1430    1.2250    2.2420 C.3       1 K29      0.000000
      9 HG2        -0.9390    1.3470    2.1850 H         1 K29      0.000000
     10 HG3         0.4360    1.0650    3.2800 H         1 K29      0.000000
     11 CD          0.8220    2.4770    1.7120 C.3       1 K29      0.000000
     12 HD2         0.6270    2.5510    0.6420 H         1 K29      0.000000
     13 HD3         0.3980    3.3430    2.2190 H         1 K29      0.000000
     14 CE          2.3220    2.4350    1.9510 C.3       1 K29      0.000000
     15 HE2         2.4950    2.3480    3.0240 H         1 K29      0.000000
     16 HE3         2.7240    1.5560    1.4470 H         1 K29      0.000000
     17 NZ          3.0010    3.6570    1.4360 N.3       1 K29      0.000000
     18 HZ2         3.9930    3.5910    1.6130 H         1 K29      0.000000
     19 HZ3         2.8410    3.7370    0.4420 H         1 K29      0.000000
     20 C           0.5510   -1.1980   -0.7660 C.1       1 K29      0.000000
     21 O           0.0240   -2.3060   -0.6670 O.2       1 K29      0.000000
@<TRIPOS>BOND
     1    1    2 1   
     2    1    3 1   
     3    3    4 1   
     4    3    5 1   
     5    3   20 1   
     6    5    6 1   
     7    5    7 1   
     8    5    8 1   
     9    8    9 1   
    10    8   10 1   
    11    8   11 1   
    12   11   12 1   
    13   11   13 1   
    14   11   14 1   
    15   14   15 1   
    16   14   16 1   
    17   14   17 1   
    18   17   18 1   
    19   17   19 1   
    20   20   21 1   
@<TRIPOS>SUBSTRUCTURE
     1 K29         1 TEMP              0 ****  ****    0 ROOT
