@<TRIPOS>MOLECULE
K36
   21    20     1     0     0
SMALL
No Charge or Current Charge


@<TRIPOS>ATOM
      1 N          -1.4580    0.0000    0.0000 N.2       1 K36      0.000000
      2 H          -1.9370   -0.7700   -0.4450 H         1 K36      0.000000
      3 CA          0.0000    0.0000    0.0000 C.3       1 K36      0.000000
      4 HA          0.3690    0.8900   -0.5100 H         1 K36      0.000000
      5 CB          0.5360    0.0000    1.4330 C.3       1 K36      0.000000
      6 HB2         0.0980    0.8600    1.9400 H         1 K36      0.000000
      7 HB3         0.1860   -0.9170    1.9070 H         1 K36      0.000000
      8 CG          2.0510    0.0730    1.5290 C.3       1 K36      0.000000
      9 HG2         2.3410   -0.0850    2.5680 H         1 K36      0.000000
     10 HG3         2.4770   -0.7160    0.9090 H         1 K36      0.000000
     11 CD          2.5700    1.4220    1.0580 C.3       1 K36      0.000000
     12 HD2         2.2640    1.5700    0.0220 H         1 K36      0.000000
     13 HD3         2.1290    2.2010    1.6810 H         1 K36      0.000000
     14 CE          4.0850    1.4940    1.1540 C.3       1 K36      0.000000
     15 HE2         4.3950    2.5090    0.9050 H         1 K36      0.000000
     16 HE3         4.3730    1.2680    2.1810 H         1 K36      0.000000
     17 NZ          4.7470    0.5320    0.2300 N.3       1 K36      0.000000
     18 HZ2         5.7500    0.6110    0.3240 H         1 K36      0.000000
     19 HZ3         4.4600   -0.4080    0.4610 H         1 K36      0.000000
     20 C           0.5510   -1.1980   -0.7660 C.1       1 K36      0.000000
     21 O           0.0240   -2.3060   -0.6670 O.2       1 K36      0.000000
@<TRIPOS>BOND
     1    1    2 1   
     2    1    3 1   
     3    3    4 1   
     4    3    5 1   
     5    3   20 1   
     6    5    6 1   
     7    5    7 1   
     8    5    8 1   
     9    8    9 1   
    10    8   10 1   
    11    8   11 1   
    12   11   12 1   
    13   11   13 1   
    14   11   14 1   
    15   14   15 1   
    16   14   16 1   
    17   14   17 1   
    18   17   18 1   
    19   17   19 1   
    20   20   21 1   
@<TRIPOS>SUBSTRUCTURE
     1 K36         1 TEMP              0 ****  ****    0 ROOT
