@<TRIPOS>MOLECULE
L01
   19    18     1     0     0
SMALL
No Charge or Current Charge


@<TRIPOS>ATOM
      1 N          -1.4580    0.0000    0.0000 N.2       1 L01      0.000000
      2 H          -1.9370   -0.7700   -0.4450 H         1 L01      0.000000
      3 CA          0.0000    0.0000    0.0000 C.3       1 L01      0.000000
      4 HA          0.3690    0.8900   -0.5100 H         1 L01      0.000000
      5 CB          0.5360    0.0000    1.4330 C.3       1 L01      0.000000
      6 HB2         0.1060   -0.8780    1.9150 H         1 L01      0.000000
      7 HB3         1.6160   -0.1240    1.3490 H         1 L01      0.000000
      8 CG          0.2300    1.2430    2.2710 C.3       1 L01      0.000000
      9 HG         -0.8450    1.4230    2.2550 H         1 L01      0.000000
     10 CD1         0.6900    1.0490    3.7080 C.3       1 L01      0.000000
     11 HD11        1.7650    0.8690    3.7250 H         1 L01      0.000000
     12 HD12        0.4630    1.9440    4.2870 H         1 L01      0.000000
     13 HD13        0.1720    0.1940    4.1440 H         1 L01      0.000000
     14 CD2         0.9430    2.4610    1.7050 C.3       1 L01      0.000000
     15 HD21        0.6090    2.6350    0.6820 H         1 L01      0.000000
     16 HD22        0.7120    3.3340    2.3150 H         1 L01      0.000000
     17 HD23        2.0190    2.2880    1.7110 H         1 L01      0.000000
     18 C           0.5510   -1.1980   -0.7660 C.1       1 L01      0.000000
     19 O           0.0240   -2.3060   -0.6670 O.2       1 L01      0.000000
@<TRIPOS>BOND
     1    1    2 1   
     2    1    3 1   
     3    3    4 1   
     4    3    5 1   
     5    3   18 1   
     6    5    6 1   
     7    5    7 1   
     8    5    8 1   
     9    8    9 1   
    10    8   10 1   
    11    8   14 1   
    12   10   11 1   
    13   10   12 1   
    14   10   13 1   
    15   14   15 1   
    16   14   16 1   
    17   14   17 1   
    18   18   19 1   
@<TRIPOS>SUBSTRUCTURE
     1 L01         1 TEMP              0 ****  ****    0 ROOT
