@<TRIPOS>MOLECULE
L02
   19    18     1     0     0
SMALL
No Charge or Current Charge


@<TRIPOS>ATOM
      1 N          -1.4580    0.0000    0.0000 N.2       1 L02      0.000000
      2 H          -1.9370   -0.7700   -0.4450 H         1 L02      0.000000
      3 CA          0.0000    0.0000    0.0000 C.3       1 L02      0.000000
      4 HA          0.3690    0.8900   -0.5100 H         1 L02      0.000000
      5 CB          0.5360    0.0000    1.4330 C.3       1 L02      0.000000
      6 HB2        -0.1420   -0.6300    2.0090 H         1 L02      0.000000
      7 HB3         1.5180   -0.4720    1.3840 H         1 L02      0.000000
      8 CG          0.6610    1.3670    2.1100 C.3       1 L02      0.000000
      9 HG          1.2750    2.0150    1.4840 H         1 L02      0.000000
     10 CD1        -0.7090    1.9990    2.3000 C.3       1 L02      0.000000
     11 HD11       -1.3250    1.3520    2.9240 H         1 L02      0.000000
     12 HD12       -0.5980    2.9700    2.7820 H         1 L02      0.000000
     13 HD13       -1.1880    2.1290    1.3290 H         1 L02      0.000000
     14 CD2         1.3170    1.2330    3.4750 C.3       1 L02      0.000000
     15 HD21        2.3130    0.8050    3.3590 H         1 L02      0.000000
     16 HD22        1.3960    2.2160    3.9390 H         1 L02      0.000000
     17 HD23        0.7130    0.5810    4.1060 H         1 L02      0.000000
     18 C           0.5510   -1.1980   -0.7660 C.1       1 L02      0.000000
     19 O           0.0240   -2.3060   -0.6670 O.2       1 L02      0.000000
@<TRIPOS>BOND
     1    1    2 1   
     2    1    3 1   
     3    3    4 1   
     4    3    5 1   
     5    3   18 1   
     6    5    6 1   
     7    5    7 1   
     8    5    8 1   
     9    8    9 1   
    10    8   10 1   
    11    8   14 1   
    12   10   11 1   
    13   10   12 1   
    14   10   13 1   
    15   14   15 1   
    16   14   16 1   
    17   14   17 1   
    18   18   19 1   
@<TRIPOS>SUBSTRUCTURE
     1 L02         1 TEMP              0 ****  ****    0 ROOT
