@<TRIPOS>MOLECULE
L03
   19    18     1     0     0
SMALL
No Charge or Current Charge


@<TRIPOS>ATOM
      1 N          -1.4580    0.0000    0.0000 N.2       1 L03      0.000000
      2 H          -1.9370   -0.7700   -0.4450 H         1 L03      0.000000
      3 CA          0.0000    0.0000    0.0000 C.3       1 L03      0.000000
      4 HA          0.3690    0.8900   -0.5100 H         1 L03      0.000000
      5 CB          0.5360    0.0000    1.4330 C.3       1 L03      0.000000
      6 HB2         0.0790    0.8580    1.9260 H         1 L03      0.000000
      7 HB3         0.1680   -0.9190    1.8890 H         1 L03      0.000000
      8 CG          2.0560    0.0720    1.5880 C.3       1 L03      0.000000
      9 HG          2.5060   -0.7450    1.0240 H         1 L03      0.000000
     10 CD1         2.5870    1.3990    1.0670 C.3       1 L03      0.000000
     11 HD11        2.1370    2.2170    1.6290 H         1 L03      0.000000
     12 HD12        3.6700    1.4300    1.1860 H         1 L03      0.000000
     13 HD13        2.3350    1.5030    0.0110 H         1 L03      0.000000
     14 CD2         2.4550   -0.0590    3.0490 C.3       1 L03      0.000000
     15 HD21        2.1070   -1.0170    3.4360 H         1 L03      0.000000
     16 HD22        3.5400   -0.0050    3.1360 H         1 L03      0.000000
     17 HD23        2.0040    0.7500    3.6230 H         1 L03      0.000000
     18 C           0.5510   -1.1980   -0.7660 C.1       1 L03      0.000000
     19 O           0.0240   -2.3060   -0.6670 O.2       1 L03      0.000000
@<TRIPOS>BOND
     1    1    2 1   
     2    1    3 1   
     3    3    4 1   
     4    3    5 1   
     5    3   18 1   
     6    5    6 1   
     7    5    7 1   
     8    5    8 1   
     9    8    9 1   
    10    8   10 1   
    11    8   14 1   
    12   10   11 1   
    13   10   12 1   
    14   10   13 1   
    15   14   15 1   
    16   14   16 1   
    17   14   17 1   
    18   18   19 1   
@<TRIPOS>SUBSTRUCTURE
     1 L03         1 TEMP              0 ****  ****    0 ROOT
