@<TRIPOS>MOLECULE
L04
   19    18     1     0     0
SMALL
No Charge or Current Charge


@<TRIPOS>ATOM
      1 N          -1.4580    0.0000    0.0000 N.2       1 L04      0.000000
      2 H          -1.9370   -0.7700   -0.4450 H         1 L04      0.000000
      3 CA          0.0000    0.0000    0.0000 C.3       1 L04      0.000000
      4 HA          0.3690    0.8900   -0.5100 H         1 L04      0.000000
      5 CB          0.5360    0.0000    1.4330 C.3       1 L04      0.000000
      6 HB2         0.0120    0.8030    1.9510 H         1 L04      0.000000
      7 HB3         0.2450   -0.9600    1.8610 H         1 L04      0.000000
      8 CG          2.0460    0.1910    1.5920 C.3       1 L04      0.000000
      9 HG          2.4220    0.7510    0.7360 H         1 L04      0.000000
     10 CD1         2.3590    0.9520    2.8710 C.3       1 L04      0.000000
     11 HD11        1.9820    0.3940    3.7280 H         1 L04      0.000000
     12 HD12        3.4370    1.0780    2.9650 H         1 L04      0.000000
     13 HD13        1.8810    1.9320    2.8380 H         1 L04      0.000000
     14 CD2         2.7540   -1.1530    1.6530 C.3       1 L04      0.000000
     15 HD21        2.5640   -1.7060    0.7330 H         1 L04      0.000000
     16 HD22        3.8260   -0.9950    1.7660 H         1 L04      0.000000
     17 HD23        2.3800   -1.7230    2.5030 H         1 L04      0.000000
     18 C           0.5510   -1.1980   -0.7660 C.1       1 L04      0.000000
     19 O           0.0240   -2.3060   -0.6670 O.2       1 L04      0.000000
@<TRIPOS>BOND
     1    1    2 1   
     2    1    3 1   
     3    3    4 1   
     4    3    5 1   
     5    3   18 1   
     6    5    6 1   
     7    5    7 1   
     8    5    8 1   
     9    8    9 1   
    10    8   10 1   
    11    8   14 1   
    12   10   11 1   
    13   10   12 1   
    14   10   13 1   
    15   14   15 1   
    16   14   16 1   
    17   14   17 1   
    18   18   19 1   
@<TRIPOS>SUBSTRUCTURE
     1 L04         1 TEMP              0 ****  ****    0 ROOT
