@<TRIPOS>MOLECULE
M13
   17    16     1     0     0
SMALL
No Charge or Current Charge


@<TRIPOS>ATOM
      1 N          -1.4580    0.0000    0.0000 N.2       1 M13      0.000000
      2 H          -1.9370   -0.7700   -0.4450 H         1 M13      0.000000
      3 CA          0.0000    0.0000    0.0000 C.3       1 M13      0.000000
      4 HA          0.3690    0.8900   -0.5100 H         1 M13      0.000000
      5 CB          0.5360    0.0000    1.4330 C.3       1 M13      0.000000
      6 HB2         1.6220    0.0600    1.3700 H         1 M13      0.000000
      7 HB3         0.1510    0.8960    1.9200 H         1 M13      0.000000
      8 CG          0.1430   -1.2250    2.2430 C.3       1 M13      0.000000
      9 HG2        -0.9460   -1.2720    2.2810 H         1 M13      0.000000
     10 HG3         0.5270   -2.1080    1.7310 H         1 M13      0.000000
     11 SD          0.7920   -1.1870    3.9230 S.3       1 M13      0.000000
     12 CE         -0.2940    0.0210    4.6790 C.3       1 M13      0.000000
     13 HE1        -1.3240   -0.3280    4.6180 H         1 M13      0.000000
     14 HE2        -0.0170    0.1550    5.7250 H         1 M13      0.000000
     15 HE3        -0.2010    0.9720    4.1550 H         1 M13      0.000000
     16 C           0.5510   -1.1980   -0.7660 C.1       1 M13      0.000000
     17 O           0.0240   -2.3060   -0.6670 O.2       1 M13      0.000000
@<TRIPOS>BOND
     1    1    2 1   
     2    1    3 1   
     3    3    4 1   
     4    3    5 1   
     5    3   16 1   
     6    5    6 1   
     7    5    7 1   
     8    5    8 1   
     9    8    9 1   
    10    8   10 1   
    11    8   11 1   
    12   11   12 1   
    13   12   13 1   
    14   12   14 1   
    15   12   15 1   
    16   16   17 1   
@<TRIPOS>SUBSTRUCTURE
     1 M13         1 TEMP              0 ****  ****    0 ROOT
