@<TRIPOS>MOLECULE
N01
   14    13     1     0     0
SMALL
No Charge or Current Charge


@<TRIPOS>ATOM
      1 N          -1.4580    0.0000    0.0000 N.2       1 N01      0.000000
      2 H          -1.9370   -0.7700   -0.4450 H         1 N01      0.000000
      3 CA          0.0000    0.0000    0.0000 C.3       1 N01      0.000000
      4 HA          0.3690    0.8900   -0.5100 H         1 N01      0.000000
      5 CB          0.5360    0.0000    1.4330 C.3       1 N01      0.000000
      6 HB2         0.1110   -0.8500    1.9660 H         1 N01      0.000000
      7 HB3         1.6210   -0.0980    1.4000 H         1 N01      0.000000
      8 CG          0.1860    1.2680    2.1860 C.2       1 N01      0.000000
      9 OD1        -0.1080    2.2990    1.5820 O.2       1 N01      0.000000
     10 ND2         0.2160    1.1950    3.5110 N.am      1 N01      0.000000
     11 HD21       -0.0080    2.0100    4.0640 H         1 N01      0.000000
     12 HD22        0.4630    0.3250    3.9600 H         1 N01      0.000000
     13 C           0.5510   -1.1980   -0.7660 C.1       1 N01      0.000000
     14 O           0.0240   -2.3060   -0.6670 O.2       1 N01      0.000000
@<TRIPOS>BOND
     1    1    2 1   
     2    1    3 1   
     3    3    4 1   
     4    3    5 1   
     5    3   13 1   
     6    5    6 1   
     7    5    7 1   
     8    5    8 1   
     9    8    9 1   
    10    8   10 1   
    11   10   11 1   
    12   10   12 1   
    13   13   14 1   
@<TRIPOS>SUBSTRUCTURE
     1 N01         1 TEMP              0 ****  ****    0 ROOT
