@<TRIPOS>MOLECULE
P04
   20    20     1     0     0
SMALL
No Charge or Current Charge


@<TRIPOS>ATOM
      1 N          -1.4580    0.0000    0.0000 N.2       1 P04      0.000000
      2 H          -1.9370   -0.7700   -0.4450 H         1 P04      0.000000
      3 CA          0.0000    0.0000    0.0000 C.3       1 P04      0.000000
      4 HA          0.3690    0.8900   -0.5100 H         1 P04      0.000000
      5 CB          0.5360    0.0000    1.4330 C.3       1 P04      0.000000
      6 HB2         1.6260    0.0310    1.4290 H         1 P04      0.000000
      7 HB3         0.1500    0.8640    1.9740 H         1 P04      0.000000
      8 CG          0.1440   -1.2130    2.2260 C.ar      1 P04      0.000000
      9 CD1         0.9440   -2.3430    2.2320 C.ar      1 P04      0.000000
     10 HD1         1.8680   -2.3470    1.6520 H         1 P04      0.000000
     11 CE1         0.5830   -3.4590    2.9630 C.ar      1 P04      0.000000
     12 HE1         1.2240   -4.3410    2.9580 H         1 P04      0.000000
     13 CZ         -0.5830   -3.4580    3.6960 C.ar      1 P04      0.000000
     14 HZ         -0.8690   -4.3380    4.2720 H         1 P04      0.000000
     15 CE2        -1.3880   -2.3410    3.6990 C.ar      1 P04      0.000000
     16 HE2        -2.3120   -2.3360    4.2770 H         1 P04      0.000000
     17 CD2        -1.0240   -1.2260    2.9680 C.ar      1 P04      0.000000
     18 HD2        -1.6600   -0.3410    2.9710 H         1 P04      0.000000
     19 C           0.5510   -1.1980   -0.7660 C.1       1 P04      0.000000
     20 O           0.0240   -2.3060   -0.6670 O.2       1 P04      0.000000
@<TRIPOS>BOND
     1    1    2 1   
     2    1    3 1   
     3    3    4 1   
     4    3    5 1   
     5    3   19 1   
     6    5    6 1   
     7    5    7 1   
     8    5    8 1   
     9    8    9 1   
    10    8   17 1   
    11    9   10 1   
    12    9   11 1   
    13   11   12 1   
    14   11   13 1   
    15   13   14 1   
    16   13   15 1   
    17   15   16 1   
    18   15   17 1   
    19   17   18 1   
    20   19   20 1   
@<TRIPOS>SUBSTRUCTURE
     1 P04         1 TEMP              0 ****  ****    0 ROOT
