@<TRIPOS>MOLECULE
Q02
   17    16     1     0     0
SMALL
No Charge or Current Charge


@<TRIPOS>ATOM
      1 N          -1.4580    0.0000    0.0000 N.2       1 Q02      0.000000
      2 H          -1.9370   -0.7700   -0.4450 H         1 Q02      0.000000
      3 CA          0.0000    0.0000    0.0000 C.3       1 Q02      0.000000
      4 HA          0.3690    0.8900   -0.5100 H         1 Q02      0.000000
      5 CB          0.5360    0.0000    1.4330 C.3       1 Q02      0.000000
      6 HB2         0.1070   -0.8670    1.9370 H         1 Q02      0.000000
      7 HB3         1.6180   -0.1150    1.3710 H         1 Q02      0.000000
      8 CG          0.2050    1.2580    2.2190 C.3       1 Q02      0.000000
      9 HG2        -0.8740    1.4070    2.2060 H         1 Q02      0.000000
     10 HG3         0.5420    1.1250    3.2480 H         1 Q02      0.000000
     11 CD          0.8710    2.4940    1.6480 C.2       1 Q02      0.000000
     12 OE1         2.0270    2.4500    1.2280 O.2       1 Q02      0.000000
     13 NE2         0.1400    3.6030    1.6290 N.am      1 Q02      0.000000
     14 HE21        0.5330    4.4570    1.2600 H         1 Q02      0.000000
     15 HE22       -0.8050    3.5880    1.9840 H         1 Q02      0.000000
     16 C           0.5510   -1.1980   -0.7660 C.1       1 Q02      0.000000
     17 O           0.0240   -2.3060   -0.6670 O.2       1 Q02      0.000000
@<TRIPOS>BOND
     1    1    2 1   
     2    1    3 1   
     3    3    4 1   
     4    3    5 1   
     5    3   16 1   
     6    5    6 1   
     7    5    7 1   
     8    5    8 1   
     9    8    9 1   
    10    8   10 1   
    11    8   11 1   
    12   11   12 1   
    13   11   13 1   
    14   13   14 1   
    15   13   15 1   
    16   16   17 1   
@<TRIPOS>SUBSTRUCTURE
     1 Q02         1 TEMP              0 ****  ****    0 ROOT
