@<TRIPOS>MOLECULE
Q05
   17    16     1     0     0
SMALL
No Charge or Current Charge


@<TRIPOS>ATOM
      1 N          -1.4580    0.0000    0.0000 N.2       1 Q05      0.000000
      2 H          -1.9370   -0.7700   -0.4450 H         1 Q05      0.000000
      3 CA          0.0000    0.0000    0.0000 C.3       1 Q05      0.000000
      4 HA          0.3690    0.8900   -0.5100 H         1 Q05      0.000000
      5 CB          0.5360    0.0000    1.4330 C.3       1 Q05      0.000000
      6 HB2         1.6230    0.0600    1.3690 H         1 Q05      0.000000
      7 HB3         0.1510    0.8960    1.9200 H         1 Q05      0.000000
      8 CG          0.1430   -1.2250    2.2430 C.3       1 Q05      0.000000
      9 HG2        -0.9440   -1.2790    2.2930 H         1 Q05      0.000000
     10 HG3         0.5280   -2.1130    1.7420 H         1 Q05      0.000000
     11 CD          0.6920   -1.1900    3.6550 C.2       1 Q05      0.000000
     12 OE1         1.0500   -0.1300    4.1670 O.2       1 Q05      0.000000
     13 NE2         0.7580   -2.3540    4.2910 N.am      1 Q05      0.000000
     14 HE21        1.1160   -2.3910    5.2350 H         1 Q05      0.000000
     15 HE22        0.4510   -3.1970    3.8280 H         1 Q05      0.000000
     16 C           0.5510   -1.1980   -0.7660 C.1       1 Q05      0.000000
     17 O           0.0240   -2.3060   -0.6670 O.2       1 Q05      0.000000
@<TRIPOS>BOND
     1    1    2 1   
     2    1    3 1   
     3    3    4 1   
     4    3    5 1   
     5    3   16 1   
     6    5    6 1   
     7    5    7 1   
     8    5    8 1   
     9    8    9 1   
    10    8   10 1   
    11    8   11 1   
    12   11   12 1   
    13   11   13 1   
    14   13   14 1   
    15   13   15 1   
    16   16   17 1   
@<TRIPOS>SUBSTRUCTURE
     1 Q05         1 TEMP              0 ****  ****    0 ROOT
