@<TRIPOS>MOLECULE
R10
   24    23     1     0     0
SMALL
No Charge or Current Charge


@<TRIPOS>ATOM
      1 N          -1.4580    0.0000    0.0000 N.2       1 R10      0.000000
      2 H          -1.9370   -0.7700   -0.4450 H         1 R10      0.000000
      3 CA          0.0000    0.0000    0.0000 C.3       1 R10      0.000000
      4 HA          0.3690    0.8900   -0.5100 H         1 R10      0.000000
      5 CB          0.5360    0.0000    1.4330 C.3       1 R10      0.000000
      6 HB2         0.1510   -0.8960    1.9200 H         1 R10      0.000000
      7 HB3         1.6230   -0.0600    1.3700 H         1 R10      0.000000
      8 CG          0.1430    1.2250    2.2420 C.3       1 R10      0.000000
      9 HG2        -0.9390    1.3470    2.1850 H         1 R10      0.000000
     10 HG3         0.4350    1.0650    3.2800 H         1 R10      0.000000
     11 CD          0.8220    2.4770    1.7120 C.3       1 R10      0.000000
     12 HD2         1.9020    2.3450    1.7680 H         1 R10      0.000000
     13 HD3         0.5290    2.6270    0.6730 H         1 R10      0.000000
     14 NE          0.4550    3.6650    2.4780 N.3       1 R10      0.000000
     15 HE         -0.1850    3.5390    3.2490 H         1 R10      0.000000
     16 CZ          0.9090    4.8880    2.2230 C.cat     1 R10      0.000000
     17 NH1         1.7490    5.0870    1.2180 N.3       1 R10      0.000000
     18 HH11        2.0430    4.3070    0.6470 H         1 R10      0.000000
     19 HH12        2.0920    6.0180    1.0270 H         1 R10      0.000000
     20 NH2         0.5200    5.9080    2.9750 N.3       1 R10      0.000000
     21 HH21       -0.1210    5.7520    3.7400 H         1 R10      0.000000
     22 HH22        0.8660    6.8370    2.7790 H         1 R10      0.000000
     23 C           0.5510   -1.1980   -0.7660 C.1       1 R10      0.000000
     24 O           0.0240   -2.3060   -0.6670 O.2       1 R10      0.000000
@<TRIPOS>BOND
     1    1    2 1   
     2    1    3 1   
     3    3    4 1   
     4    3    5 1   
     5    3   23 1   
     6    5    6 1   
     7    5    7 1   
     8    5    8 1   
     9    8    9 1   
    10    8   10 1   
    11    8   11 1   
    12   11   12 1   
    13   11   13 1   
    14   11   14 1   
    15   14   15 1   
    16   14   16 1   
    17   16   17 1   
    18   16   20 1   
    19   17   18 1   
    20   17   19 1   
    21   20   21 1   
    22   20   22 1   
    23   23   24 1   
@<TRIPOS>SUBSTRUCTURE
     1 R10         1 TEMP              0 ****  ****    0 ROOT
