@<TRIPOS>MOLECULE
R13
   24    23     1     0     0
SMALL
No Charge or Current Charge


@<TRIPOS>ATOM
      1 N          -1.4580    0.0000    0.0000 N.2       1 R13      0.000000
      2 H          -1.9370   -0.7700   -0.4450 H         1 R13      0.000000
      3 CA          0.0000    0.0000    0.0000 C.3       1 R13      0.000000
      4 HA          0.3690    0.8900   -0.5100 H         1 R13      0.000000
      5 CB          0.5360    0.0000    1.4330 C.3       1 R13      0.000000
      6 HB2         0.1510   -0.8960    1.9200 H         1 R13      0.000000
      7 HB3         1.6230   -0.0600    1.3700 H         1 R13      0.000000
      8 CG          0.1430    1.2250    2.2420 C.3       1 R13      0.000000
      9 HG2        -0.9390    1.3470    2.1850 H         1 R13      0.000000
     10 HG3         0.4350    1.0650    3.2800 H         1 R13      0.000000
     11 CD          0.8220    2.4770    1.7120 C.3       1 R13      0.000000
     12 HD2         0.5900    2.5840    0.6530 H         1 R13      0.000000
     13 HD3         0.4430    3.3430    2.2550 H         1 R13      0.000000
     14 NE          2.2720    2.4230    1.8700 N.3       1 R13      0.000000
     15 HE          2.8120    2.0970    1.0810 H         1 R13      0.000000
     16 CZ          2.9160    2.7750    2.9780 C.cat     1 R13      0.000000
     17 NH1         4.2390    2.6920    3.0300 N.3       1 R13      0.000000
     18 HH11        4.7530    2.3610    2.2260 H         1 R13      0.000000
     19 HH12        4.7260    2.9600    3.8740 H         1 R13      0.000000
     20 NH2         2.2370    3.2100    4.0300 N.3       1 R13      0.000000
     21 HH21        1.2300    3.2730    3.9860 H         1 R13      0.000000
     22 HH22        2.7300    3.4770    4.8710 H         1 R13      0.000000
     23 C           0.5510   -1.1980   -0.7660 C.1       1 R13      0.000000
     24 O           0.0240   -2.3060   -0.6670 O.2       1 R13      0.000000
@<TRIPOS>BOND
     1    1    2 1   
     2    1    3 1   
     3    3    4 1   
     4    3    5 1   
     5    3   23 1   
     6    5    6 1   
     7    5    7 1   
     8    5    8 1   
     9    8    9 1   
    10    8   10 1   
    11    8   11 1   
    12   11   12 1   
    13   11   13 1   
    14   11   14 1   
    15   14   15 1   
    16   14   16 1   
    17   16   17 1   
    18   16   20 1   
    19   17   18 1   
    20   17   19 1   
    21   20   21 1   
    22   20   22 1   
    23   23   24 1   
@<TRIPOS>SUBSTRUCTURE
     1 R13         1 TEMP              0 ****  ****    0 ROOT
