@<TRIPOS>MOLECULE
R14
   24    23     1     0     0
SMALL
No Charge or Current Charge


@<TRIPOS>ATOM
      1 N          -1.4580    0.0000    0.0000 N.2       1 R14      0.000000
      2 H          -1.9370   -0.7700   -0.4450 H         1 R14      0.000000
      3 CA          0.0000    0.0000    0.0000 C.3       1 R14      0.000000
      4 HA          0.3690    0.8900   -0.5100 H         1 R14      0.000000
      5 CB          0.5360    0.0000    1.4330 C.3       1 R14      0.000000
      6 HB2         0.0980    0.8600    1.9400 H         1 R14      0.000000
      7 HB3         0.1860   -0.9170    1.9070 H         1 R14      0.000000
      8 CG          2.0510    0.0730    1.5290 C.3       1 R14      0.000000
      9 HG2         2.3380   -0.0320    2.5760 H         1 R14      0.000000
     10 HG3         2.4760   -0.7490    0.9530 H         1 R14      0.000000
     11 CD          2.5750    1.3940    0.9900 C.3       1 R14      0.000000
     12 HD2         3.6640    1.3690    0.9890 H         1 R14      0.000000
     13 HD3         2.2140    1.5300   -0.0300 H         1 R14      0.000000
     14 NE          2.1340    2.5280    1.7970 N.3       1 R14      0.000000
     15 HE          1.3030    3.0160    1.4950 H         1 R14      0.000000
     16 CZ          2.7540    2.9490    2.8940 C.cat     1 R14      0.000000
     17 NH1         3.8470    2.3290    3.3180 N.3       1 R14      0.000000
     18 HH11        4.2060    1.5370    2.8050 H         1 R14      0.000000
     19 HH12        4.3160    2.6520    4.1530 H         1 R14      0.000000
     20 NH2         2.2800    3.9910    3.5640 N.3       1 R14      0.000000
     21 HH21        1.4480    4.4620    3.2370 H         1 R14      0.000000
     22 HH22        2.7530    4.3090    4.3980 H         1 R14      0.000000
     23 C           0.5510   -1.1980   -0.7660 C.1       1 R14      0.000000
     24 O           0.0240   -2.3060   -0.6670 O.2       1 R14      0.000000
@<TRIPOS>BOND
     1    1    2 1   
     2    1    3 1   
     3    3    4 1   
     4    3    5 1   
     5    3   23 1   
     6    5    6 1   
     7    5    7 1   
     8    5    8 1   
     9    8    9 1   
    10    8   10 1   
    11    8   11 1   
    12   11   12 1   
    13   11   13 1   
    14   11   14 1   
    15   14   15 1   
    16   14   16 1   
    17   16   17 1   
    18   16   20 1   
    19   17   18 1   
    20   17   19 1   
    21   20   21 1   
    22   20   22 1   
    23   23   24 1   
@<TRIPOS>SUBSTRUCTURE
     1 R14         1 TEMP              0 ****  ****    0 ROOT
