@<TRIPOS>MOLECULE
R26
   24    23     1     0     0
SMALL
No Charge or Current Charge


@<TRIPOS>ATOM
      1 N          -1.4580    0.0000    0.0000 N.2       1 R26      0.000000
      2 H          -1.9370   -0.7700   -0.4450 H         1 R26      0.000000
      3 CA          0.0000    0.0000    0.0000 C.3       1 R26      0.000000
      4 HA          0.3690    0.8900   -0.5100 H         1 R26      0.000000
      5 CB          0.5360    0.0000    1.4330 C.3       1 R26      0.000000
      6 HB2         1.6230    0.0600    1.3700 H         1 R26      0.000000
      7 HB3         0.1510    0.8960    1.9200 H         1 R26      0.000000
      8 CG          0.1430   -1.2250    2.2420 C.3       1 R26      0.000000
      9 HG2        -0.9450   -1.2760    2.2890 H         1 R26      0.000000
     10 HG3         0.5260   -2.1120    1.7380 H         1 R26      0.000000
     11 CD          0.7080   -1.1590    3.6520 C.3       1 R26      0.000000
     12 HD2         1.7950   -1.1030    3.5960 H         1 R26      0.000000
     13 HD3         0.3240   -0.2670    4.1470 H         1 R26      0.000000
     14 NE          0.3400   -2.3290    4.4440 N.3       1 R26      0.000000
     15 HE         -0.4770   -2.2510    5.0330 H         1 R26      0.000000
     16 CZ          1.0090   -3.4770    4.4360 C.cat     1 R26      0.000000
     17 NH1         2.0850   -3.6120    3.6740 N.3       1 R26      0.000000
     18 HH11        2.3940   -2.8400    3.1000 H         1 R26      0.000000
     19 HH12        2.5910   -4.4860    3.6700 H         1 R26      0.000000
     20 NH2         0.5990   -4.4880    5.1900 N.3       1 R26      0.000000
     21 HH21       -0.2220   -4.3820    5.7690 H         1 R26      0.000000
     22 HH22        1.1100   -5.3600    5.1820 H         1 R26      0.000000
     23 C           0.5510   -1.1980   -0.7660 C.1       1 R26      0.000000
     24 O           0.0240   -2.3060   -0.6670 O.2       1 R26      0.000000
@<TRIPOS>BOND
     1    1    2 1   
     2    1    3 1   
     3    3    4 1   
     4    3    5 1   
     5    3   23 1   
     6    5    6 1   
     7    5    7 1   
     8    5    8 1   
     9    8    9 1   
    10    8   10 1   
    11    8   11 1   
    12   11   12 1   
    13   11   13 1   
    14   11   14 1   
    15   14   15 1   
    16   14   16 1   
    17   16   17 1   
    18   16   20 1   
    19   17   18 1   
    20   17   19 1   
    21   20   21 1   
    22   20   22 1   
    23   23   24 1   
@<TRIPOS>SUBSTRUCTURE
     1 R26         1 TEMP              0 ****  ****    0 ROOT
