@<TRIPOS>MOLECULE
W02
   24    25     1     0     0
SMALL
No Charge or Current Charge


@<TRIPOS>ATOM
      1 N          -1.4580    0.0000    0.0000 N.2       1 W02      0.000000
      2 H          -1.9450   -0.0330    0.8890 H         1 W02      0.000000
      3 CA          0.0000    0.0000    0.0000 C.3       1 W02      0.000000
      4 HA          0.3540    0.8920   -0.5160 H         1 W02      0.000000
      5 CB          0.5360    0.0000    1.4330 C.3       1 W02      0.000000
      6 HB2         0.1340   -0.8450    1.9910 H         1 W02      0.000000
      7 HB3         1.6200   -0.1080    1.4470 H         1 W02      0.000000
      8 CG          0.2030    1.2440    2.1980 C.2       1 W02      0.000000
      9 CD1        -0.4380    2.3520    1.7220 C.2       1 W02      0.000000
     10 HD1        -0.7850    2.4720    0.7000 H         1 W02      0.000000
     11 NE1        -0.5650    3.2900    2.7170 N.pl3     1 W02      0.000000
     12 HE1        -1.0020    4.2010    2.6280 H         1 W02      0.000000
     13 CE2         0.0000    2.7930    3.8670 C.ar      1 W02      0.000000
     14 CZ2         0.1140    3.3690    5.1310 C.ar      1 W02      0.000000
     15 HZ2        -0.2690    4.3570    5.3480 H         1 W02      0.000000
     16 CH2         0.7340    2.6350    6.1070 C.ar      1 W02      0.000000
     17 HH2         0.8310    3.0630    7.0980 H         1 W02      0.000000
     18 CZ3         1.2350    1.3490    5.8420 C.ar      1 W02      0.000000
     19 HZ3         1.7170    0.8060    6.6430 H         1 W02      0.000000
     20 CE3         1.1210    0.7770    4.5890 C.ar      1 W02      0.000000
     21 HE3         1.5050   -0.2080    4.3710 H         1 W02      0.000000
     22 CD2         0.4930    1.5060    3.5770 C.ar      1 W02      0.000000
     23 C           0.5510   -1.1980   -0.7660 C.1       1 W02      0.000000
     24 O           0.0240   -2.3060   -0.6670 O.2       1 W02      0.000000
@<TRIPOS>BOND
     1    1    2 1   
     2    1    3 1   
     3    3    4 1   
     4    3    5 1   
     5    3   23 1   
     6    5    6 1   
     7    5    7 1   
     8    5    8 1   
     9    8    9 1   
    10    8   22 1   
    11    9   10 1   
    12    9   11 1   
    13   11   12 1   
    14   11   13 1   
    15   13   14 1   
    16   13   22 1   
    17   14   15 1   
    18   14   16 1   
    19   16   17 1   
    20   16   18 1   
    21   18   19 1   
    22   18   20 1   
    23   20   21 1   
    24   20   22 1   
    25   23   24 1   
@<TRIPOS>SUBSTRUCTURE
     1 W02         1 TEMP              0 ****  ****    0 ROOT
