@<TRIPOS>MOLECULE
W07
   24    25     1     0     0
SMALL
No Charge or Current Charge


@<TRIPOS>ATOM
      1 N          -1.4580    0.0000    0.0000 N.2       1 W07      0.000000
      2 H          -1.9450   -0.0330    0.8890 H         1 W07      0.000000
      3 CA          0.0000    0.0000    0.0000 C.3       1 W07      0.000000
      4 HA          0.3540    0.8920   -0.5160 H         1 W07      0.000000
      5 CB          0.5360    0.0000    1.4330 C.3       1 W07      0.000000
      6 HB2         1.6240    0.0510    1.4340 H         1 W07      0.000000
      7 HB3         0.1850    0.8720    1.9830 H         1 W07      0.000000
      8 CG          0.1420   -1.2120    2.2200 C.2       1 W07      0.000000
      9 CD1        -0.9760   -1.3630    2.9880 C.2       1 W07      0.000000
     10 HD1        -1.7320   -0.5980    3.1320 H         1 W07      0.000000
     11 NE1        -0.9950   -2.6130    3.5570 N.pl3     1 W07      0.000000
     12 HE1        -1.7140   -2.9800    4.1710 H         1 W07      0.000000
     13 CE2         0.1280   -3.2970    3.1580 C.ar      1 W07      0.000000
     14 CZ2         0.5490   -4.5890    3.4690 C.ar      1 W07      0.000000
     15 HZ2        -0.0240   -5.2390    4.1150 H         1 W07      0.000000
     16 CH2         1.7280   -5.0190    2.9210 C.ar      1 W07      0.000000
     17 HH2         2.0720   -6.0210    3.1470 H         1 W07      0.000000
     18 CZ3         2.4840   -4.1880    2.0770 C.ar      1 W07      0.000000
     19 HZ3         3.4090   -4.5700    1.6670 H         1 W07      0.000000
     20 CE3         2.0670   -2.9070    1.7680 C.ar      1 W07      0.000000
     21 HE3         2.6400   -2.2560    1.1250 H         1 W07      0.000000
     22 CD2         0.8680   -2.4450    2.3140 C.ar      1 W07      0.000000
     23 C           0.5510   -1.1980   -0.7660 C.1       1 W07      0.000000
     24 O           0.0240   -2.3060   -0.6670 O.2       1 W07      0.000000
@<TRIPOS>BOND
     1    1    2 1   
     2    1    3 1   
     3    3    4 1   
     4    3    5 1   
     5    3   23 1   
     6    5    6 1   
     7    5    7 1   
     8    5    8 1   
     9    8    9 1   
    10    8   22 1   
    11    9   10 1   
    12    9   11 1   
    13   11   12 1   
    14   11   13 1   
    15   13   14 1   
    16   13   22 1   
    17   14   15 1   
    18   14   16 1   
    19   16   17 1   
    20   16   18 1   
    21   18   19 1   
    22   18   20 1   
    23   20   21 1   
    24   20   22 1   
    25   23   24 1   
@<TRIPOS>SUBSTRUCTURE
     1 W07         1 TEMP              0 ****  ****    0 ROOT
