@<TRIPOS>MOLECULE
Y01
   21    21     1     0     0
SMALL
No Charge or Current Charge


@<TRIPOS>ATOM
      1 N          -1.4580    0.0000    0.0000 N.2       1 Y01      0.000000
      2 H          -1.9370   -0.7700   -0.4450 H         1 Y01      0.000000
      3 CA          0.0000    0.0000    0.0000 C.3       1 Y01      0.000000
      4 HA          0.3690    0.8900   -0.5100 H         1 Y01      0.000000
      5 CB          0.5360    0.0000    1.4330 C.3       1 Y01      0.000000
      6 HB2         0.1080   -0.8660    1.9380 H         1 Y01      0.000000
      7 HB3         1.6180   -0.1130    1.3730 H         1 Y01      0.000000
      8 CG          0.2030    1.2530    2.2120 C.ar      1 Y01      0.000000
      9 CD1         1.0050    2.3830    2.1180 C.ar      1 Y01      0.000000
     10 HD1         1.8820    2.3530    1.4710 H         1 Y01      0.000000
     11 CE1         0.7080    3.5310    2.8260 C.ar      1 Y01      0.000000
     12 HE1         1.3430    4.4130    2.7460 H         1 Y01      0.000000
     13 CZ         -0.4140    3.5550    3.6460 C.ar      1 Y01      0.000000
     14 OH         -0.7160    4.6950    4.3540 O.3       1 Y01      0.000000
     15 HH         -0.0880    5.4060    4.2060 H         1 Y01      0.000000
     16 CE2        -1.2250    2.4410    3.7540 C.ar      1 Y01      0.000000
     17 HE2        -2.1050    2.4560    4.3970 H         1 Y01      0.000000
     18 CD2        -0.9120    1.3010    3.0380 C.ar      1 Y01      0.000000
     19 HD2        -1.5460    0.4170    3.1160 H         1 Y01      0.000000
     20 C           0.5510   -1.1980   -0.7660 C.1       1 Y01      0.000000
     21 O           0.0240   -2.3060   -0.6670 O.2       1 Y01      0.000000
@<TRIPOS>BOND
     1    1    2 1   
     2    1    3 1   
     3    3    4 1   
     4    3    5 1   
     5    3   20 1   
     6    5    6 1   
     7    5    7 1   
     8    5    8 1   
     9    8    9 1   
    10    8   18 1   
    11    9   10 1   
    12    9   11 1   
    13   11   12 1   
    14   11   13 1   
    15   13   14 1   
    16   13   16 1   
    17   14   15 1   
    18   16   17 1   
    19   16   18 1   
    20   18   19 1   
    21   20   21 1   
@<TRIPOS>SUBSTRUCTURE
     1 Y01         1 TEMP              0 ****  ****    0 ROOT
