@<TRIPOS>MOLECULE
C03
   11    10     1     0     0
SMALL
No Charge or Current Charge


@<TRIPOS>ATOM
      1 N          -1.4580    0.0000    0.0000 N.2       1 C03      0.000000
      2 H          -1.9370   -0.7700   -0.4450 H         1 C03      0.000000
      3 CA          0.0000    0.0000    0.0000 C.3       1 C03      0.000000
      4 HA          0.3690    0.8900   -0.5100 H         1 C03      0.000000
      5 CB          0.5360    0.0000    1.4330 C.3       1 C03      0.000000
      6 HB2         1.6260    0.0260    1.4290 H         1 C03      0.000000
      7 HB3         0.1540    0.8620    1.9790 H         1 C03      0.000000
      8 SG          0.0700   -1.4650    2.4110 S.3       1 C03      0.000000
      9 HG          0.6970   -1.0940    3.5240 H         1 C03      0.000000
     10 C           0.5510   -1.1980   -0.7660 C.1       1 C03      0.000000
     11 O           0.0240   -2.3060   -0.6670 O.2       1 C03      0.000000
@<TRIPOS>BOND
     1    1    2 1   
     2    1    3 1   
     3    3    4 1   
     4    3    5 1   
     5    3   10 1   
     6    5    6 1   
     7    5    7 1   
     8    5    8 1   
     9    8    9 1   
    10   10   11 1   
@<TRIPOS>SUBSTRUCTURE
     1 C03         1 TEMP              0 ****  ****    0 ROOT
