@<TRIPOS>MOLECULE
K04
   22    21     1     0     0
SMALL
No Charge or Current Charge


@<TRIPOS>ATOM
      1 N          -1.4580    0.0000    0.0000 N.2       1 K04      0.000000
      2 H          -1.9370   -0.7700   -0.4450 H         1 K04      0.000000
      3 CA          0.0000    0.0000    0.0000 C.3       1 K04      0.000000
      4 HA          0.3690    0.8900   -0.5100 H         1 K04      0.000000
      5 CB          0.5360    0.0000    1.4330 C.3       1 K04      0.000000
      6 HB2         0.0790   -0.8460    1.9470 H         1 K04      0.000000
      7 HB3         1.6140   -0.1510    1.3730 H         1 K04      0.000000
      8 CG          0.2460    1.2770    2.2040 C.3       1 K04      0.000000
      9 HG2         0.7010    2.1140    1.6730 H         1 K04      0.000000
     10 HG3        -0.8340    1.4190    2.2470 H         1 K04      0.000000
     11 CD          0.8050    1.2090    3.6160 C.3       1 K04      0.000000
     12 HD2         1.8590    0.9360    3.5600 H         1 K04      0.000000
     13 HD3         0.7090    2.1930    4.0760 H         1 K04      0.000000
     14 CE          0.0600    0.1830    4.4550 C.3       1 K04      0.000000
     15 HE2        -0.9920    0.4670    4.4880 H         1 K04      0.000000
     16 HE3         0.1570   -0.7900    3.9710 H         1 K04      0.000000
     17 NZ          0.5970    0.1040    5.8420 N.4       1 K04      0.000000
     18 HZ1         0.5060    1.0040    6.2900 H         1 K04      0.000000
     19 HZ2         0.0770   -0.5860    6.3650 H         1 K04      0.000000
     20 HZ3         1.5710   -0.1600    5.8120 H         1 K04      0.000000
     21 C           0.5510   -1.1980   -0.7660 C.1       1 K04      0.000000
     22 O           0.0240   -2.3060   -0.6670 O.2       1 K04      0.000000
@<TRIPOS>BOND
     1    1    2 1   
     2    1    3 1   
     3    3    4 1   
     4    3    5 1   
     5    3   21 1   
     6    5    6 1   
     7    5    7 1   
     8    5    8 1   
     9    8    9 1   
    10    8   10 1   
    11    8   11 1   
    12   11   12 1   
    13   11   13 1   
    14   11   14 1   
    15   14   15 1   
    16   14   16 1   
    17   14   17 1   
    18   17   18 1   
    19   17   19 1   
    20   17   20 1   
    21   21   22 1   
@<TRIPOS>SUBSTRUCTURE
     1 K04         1 TEMP              0 ****  ****    0 ROOT
