@<TRIPOS>MOLECULE
K15
   22    21     1     0     0
SMALL
No Charge or Current Charge


@<TRIPOS>ATOM
      1 N          -1.4580    0.0000    0.0000 N.2       1 K15      0.000000
      2 H          -1.9370   -0.7700   -0.4450 H         1 K15      0.000000
      3 CA          0.0000    0.0000    0.0000 C.3       1 K15      0.000000
      4 HA          0.3690    0.8900   -0.5100 H         1 K15      0.000000
      5 CB          0.5360    0.0000    1.4330 C.3       1 K15      0.000000
      6 HB2         0.0980    0.8600    1.9400 H         1 K15      0.000000
      7 HB3         0.1860   -0.9170    1.9070 H         1 K15      0.000000
      8 CG          2.0510    0.0730    1.5290 C.3       1 K15      0.000000
      9 HG2         2.4740   -0.7880    1.0100 H         1 K15      0.000000
     10 HG3         2.3860    0.9890    1.0430 H         1 K15      0.000000
     11 CD          2.5130    0.0690    2.9770 C.3       1 K15      0.000000
     12 HD2         3.5830    0.2750    3.0010 H         1 K15      0.000000
     13 HD3         1.9800    0.8540    3.5140 H         1 K15      0.000000
     14 CE          2.2410   -1.2720    3.6390 C.3       1 K15      0.000000
     15 HE2         1.1690   -1.4650    3.5930 H         1 K15      0.000000
     16 HE3         2.7720   -2.0430    3.0800 H         1 K15      0.000000
     17 NZ          2.6880   -1.2910    5.0590 N.4       1 K15      0.000000
     18 HZ1         2.1960   -0.5780    5.5770 H         1 K15      0.000000
     19 HZ2         2.4900   -2.1960    5.4620 H         1 K15      0.000000
     20 HZ3         3.6810   -1.1130    5.1020 H         1 K15      0.000000
     21 C           0.5510   -1.1980   -0.7660 C.1       1 K15      0.000000
     22 O           0.0240   -2.3060   -0.6670 O.2       1 K15      0.000000
@<TRIPOS>BOND
     1    1    2 1   
     2    1    3 1   
     3    3    4 1   
     4    3    5 1   
     5    3   21 1   
     6    5    6 1   
     7    5    7 1   
     8    5    8 1   
     9    8    9 1   
    10    8   10 1   
    11    8   11 1   
    12   11   12 1   
    13   11   13 1   
    14   11   14 1   
    15   14   15 1   
    16   14   16 1   
    17   14   17 1   
    18   17   18 1   
    19   17   19 1   
    20   17   20 1   
    21   21   22 1   
@<TRIPOS>SUBSTRUCTURE
     1 K15         1 TEMP              0 ****  ****    0 ROOT
