@<TRIPOS>MOLECULE
E10
   16    15     1     0     0
SMALL
No Charge or Current Charge


@<TRIPOS>ATOM
      1 N          -1.4580    0.0000    0.0000 N.2       1 E10      0.000000
      2 H          -1.9370   -0.7700   -0.4450 H         1 E10      0.000000
      3 CA          0.0000    0.0000    0.0000 C.3       1 E10      0.000000
      4 HA          0.3690    0.8900   -0.5100 H         1 E10      0.000000
      5 CB          0.5360    0.0000    1.4330 C.3       1 E10      0.000000
      6 HB2         0.1070   -0.8660    1.9370 H         1 E10      0.000000
      7 HB3         1.6180   -0.1150    1.3710 H         1 E10      0.000000
      8 CG          0.2050    1.2580    2.2190 C.3       1 E10      0.000000
      9 HG2         0.9650    1.3820    2.9900 H         1 E10      0.000000
     10 HG3         0.2440    2.1030    1.5310 H         1 E10      0.000000
     11 CD         -1.1660    1.1960    2.8660 C.2       1 E10      0.000000
     12 OE1        -1.8560    0.1690    2.6980 O.2       1 E10      0.000000
     13 OE2        -1.5480    2.1750    3.5410 O.3       1 E10      0.000000
     14 HE2        -2.4260    2.0020    3.8890 H         1 E10      0.000000
     15 C           0.5510   -1.1980   -0.7660 C.1       1 E10      0.000000
     16 O           0.0240   -2.3060   -0.6670 O.2       1 E10      0.000000
@<TRIPOS>BOND
     1    1    2 1   
     2    1    3 1   
     3    3    4 1   
     4    3    5 1   
     5    3   15 1   
     6    5    6 1   
     7    5    7 1   
     8    5    8 1   
     9    8    9 1   
    10    8   10 1   
    11    8   11 1   
    12   11   12 1   
    13   11   13 1   
    14   13   14 1   
    15   15   16 1   
@<TRIPOS>SUBSTRUCTURE
     1 E10         1 TEMP              0 ****  ****    0 ROOT
