@<TRIPOS>MOLECULE
E02
   15    14     1     0     0
SMALL
No Charge or Current Charge


@<TRIPOS>ATOM
      1 N          -1.4580    0.0000    0.0000 N.2       1 E02      0.000000
      2 H          -1.9370   -0.7700   -0.4450 H         1 E02      0.000000
      3 CA          0.0000    0.0000    0.0000 C.3       1 E02      0.000000
      4 HA          0.3690    0.8900   -0.5100 H         1 E02      0.000000
      5 CB          0.5360    0.0000    1.4330 C.3       1 E02      0.000000
      6 HB2         0.1070   -0.8670    1.9370 H         1 E02      0.000000
      7 HB3         1.6180   -0.1150    1.3710 H         1 E02      0.000000
      8 CG          0.2050    1.2580    2.2190 C.3       1 E02      0.000000
      9 HG2        -0.8770    1.3890    2.2050 H         1 E02      0.000000
     10 HG3         0.5390    1.1070    3.2450 H         1 E02      0.000000
     11 CD          0.8710    2.4940    1.6480 C.2       1 E02      0.000000
     12 OE1         2.0450    2.3990    1.2350 O.co2     1 E02      0.000000
     13 OE2         0.2170    3.5580    1.6120 O.co2     1 E02      0.000000
     14 C           0.5510   -1.1980   -0.7660 C.1       1 E02      0.000000
     15 O           0.0240   -2.3060   -0.6670 O.2       1 E02      0.000000
@<TRIPOS>BOND
     1    1    2 1   
     2    1    3 1   
     3    3    4 1   
     4    3    5 1   
     5    3   14 1   
     6    5    6 1   
     7    5    7 1   
     8    5    8 1   
     9    8    9 1   
    10    8   10 1   
    11    8   11 1   
    12   11   12 1   
    13   11   13 1   
    14   14   15 1   
@<TRIPOS>SUBSTRUCTURE
     1 E02         1 TEMP              0 ****  ****    0 ROOT
