@<TRIPOS>MOLECULE
W01
   24    25     1     0     0
SMALL
No Charge or Current Charge


@<TRIPOS>ATOM
      1 N          -1.4580    0.0000    0.0000 N.2       1 W01      0.000000
      2 H          -1.9450   -0.0330    0.8890 H         1 W01      0.000000
      3 CA          0.0000    0.0000    0.0000 C.3       1 W01      0.000000
      4 HA          0.3540    0.8920   -0.5160 H         1 W01      0.000000
      5 CB          0.5360    0.0000    1.4330 C.3       1 W01      0.000000
      6 HB2         0.1340   -0.8450    1.9910 H         1 W01      0.000000
      7 HB3         1.6200   -0.1080    1.4470 H         1 W01      0.000000
      8 CG          0.2030    1.2440    2.1980 C.2       1 W01      0.000000
      9 CD1        -0.8570    1.4300    3.0380 C.2       1 W01      0.000000
     10 HD1        -1.6120    0.6800    3.2530 H         1 W01      0.000000
     11 NE1        -0.8330    2.7020    3.5570 N.pl3     1 W01      0.000000
     12 HE1        -1.5060    3.0960    4.2060 H         1 W01      0.000000
     13 CE2         0.2610    3.3640    3.0520 C.ar      1 W01      0.000000
     14 CZ2         0.7060    4.6650    3.2820 C.ar      1 W01      0.000000
     15 HZ2         0.1840    5.3410    3.9450 H         1 W01      0.000000
     16 CH2         1.8450    5.0670    2.6350 C.ar      1 W01      0.000000
     17 HH2         2.2120    6.0730    2.8030 H         1 W01      0.000000
     18 CZ3         2.5360    4.2000    1.7710 C.ar      1 W01      0.000000
     19 HZ3         3.4290    4.5620    1.2810 H         1 W01      0.000000
     20 CE3         2.0950    2.9100    1.5440 C.ar      1 W01      0.000000
     21 HE3         2.6140    2.2350    0.8810 H         1 W01      0.000000
     22 CD2         0.9360    2.4750    2.1920 C.ar      1 W01      0.000000
     23 C           0.5510   -1.1980   -0.7660 C.1       1 W01      0.000000
     24 O           0.0240   -2.3060   -0.6670 O.2       1 W01      0.000000
@<TRIPOS>BOND
     1    1    2 1   
     2    1    3 1   
     3    3    4 1   
     4    3    5 1   
     5    3   23 1   
     6    5    6 1   
     7    5    7 1   
     8    5    8 1   
     9    8    9 1   
    10    8   22 1   
    11    9   10 1   
    12    9   11 1   
    13   11   12 1   
    14   11   13 1   
    15   13   14 1   
    16   13   22 1   
    17   14   15 1   
    18   14   16 1   
    19   16   17 1   
    20   16   18 1   
    21   18   19 1   
    22   18   20 1   
    23   20   21 1   
    24   20   22 1   
    25   23   24 1   
@<TRIPOS>SUBSTRUCTURE
     1 W01         1 TEMP              0 ****  ****    0 ROOT
