@<TRIPOS>MOLECULE
W03
   24    25     1     0     0
SMALL
No Charge or Current Charge


@<TRIPOS>ATOM
      1 N          -1.4580    0.0000    0.0000 N.2       1 W03      0.000000
      2 H          -1.9450   -0.0330    0.8890 H         1 W03      0.000000
      3 CA          0.0000    0.0000    0.0000 C.3       1 W03      0.000000
      4 HA          0.3540    0.8920   -0.5160 H         1 W03      0.000000
      5 CB          0.5360    0.0000    1.4330 C.3       1 W03      0.000000
      6 HB2         0.1340   -0.8450    1.9910 H         1 W03      0.000000
      7 HB3         1.6200   -0.1080    1.4470 H         1 W03      0.000000
      8 CG          0.2030    1.2440    2.1980 C.2       1 W03      0.000000
      9 CD1         0.9470    2.3860    2.2690 C.2       1 W03      0.000000
     10 HD1         1.9030    2.5300    1.7740 H         1 W03      0.000000
     11 NE1         0.3180    3.3130    3.0660 N.pl3     1 W03      0.000000
     12 HE1         0.6580    4.2440    3.2830 H         1 W03      0.000000
     13 CE2        -0.8580    2.7720    3.5270 C.ar      1 W03      0.000000
     14 CZ2        -1.8320    3.3220    4.3600 C.ar      1 W03      0.000000
     15 HZ2        -1.7450    4.3220    4.7610 H         1 W03      0.000000
     16 CH2        -2.9200    2.5450    4.6590 C.ar      1 W03      0.000000
     17 HH2        -3.6920    2.9540    5.3010 H         1 W03      0.000000
     18 CZ3        -3.0480    1.2430    4.1470 C.ar      1 W03      0.000000
     19 HZ3        -3.9230    0.6660    4.4120 H         1 W03      0.000000
     20 CE3        -2.0830    0.6980    3.3200 C.ar      1 W03      0.000000
     21 HE3        -2.1660   -0.3020    2.9220 H         1 W03      0.000000
     22 CD2        -0.9640    1.4700    2.9990 C.ar      1 W03      0.000000
     23 C           0.5510   -1.1980   -0.7660 C.1       1 W03      0.000000
     24 O           0.0240   -2.3060   -0.6670 O.2       1 W03      0.000000
@<TRIPOS>BOND
     1    1    2 1   
     2    1    3 1   
     3    3    4 1   
     4    3    5 1   
     5    3   23 1   
     6    5    6 1   
     7    5    7 1   
     8    5    8 1   
     9    8    9 1   
    10    8   22 1   
    11    9   10 1   
    12    9   11 1   
    13   11   12 1   
    14   11   13 1   
    15   13   14 1   
    16   13   22 1   
    17   14   15 1   
    18   14   16 1   
    19   16   17 1   
    20   16   18 1   
    21   18   19 1   
    22   18   20 1   
    23   20   21 1   
    24   20   22 1   
    25   23   24 1   
@<TRIPOS>SUBSTRUCTURE
     1 W03         1 TEMP              0 ****  ****    0 ROOT
