@<TRIPOS>MOLECULE
W04
   24    25     1     0     0
SMALL
No Charge or Current Charge


@<TRIPOS>ATOM
      1 N          -1.4580    0.0000    0.0000 N.2       1 W04      0.000000
      2 H          -1.9450   -0.0330    0.8890 H         1 W04      0.000000
      3 CA          0.0000    0.0000    0.0000 C.3       1 W04      0.000000
      4 HA          0.3540    0.8920   -0.5160 H         1 W04      0.000000
      5 CB          0.5360    0.0000    1.4330 C.3       1 W04      0.000000
      6 HB2         0.1370    0.8470    1.9900 H         1 W04      0.000000
      7 HB3         0.2250   -0.8960    1.9680 H         1 W04      0.000000
      8 CG          2.0300    0.0720    1.5140 C.2       1 W04      0.000000
      9 CD1         2.7940    1.2010    1.5790 C.2       1 W04      0.000000
     10 HD1         2.4000    2.2130    1.5700 H         1 W04      0.000000
     11 NE1         4.1260    0.8700    1.6430 N.pl3     1 W04      0.000000
     12 HE1         4.9020    1.5210    1.6980 H         1 W04      0.000000
     13 CE2         4.2410   -0.4990    1.6210 C.ar      1 W04      0.000000
     14 CZ2         5.3790   -1.3040    1.6650 C.ar      1 W04      0.000000
     15 HZ2         6.3740   -0.8870    1.7300 H         1 W04      0.000000
     16 CH2         5.1960   -2.6610    1.6270 C.ar      1 W04      0.000000
     17 HH2         6.0670   -3.3050    1.6640 H         1 W04      0.000000
     18 CZ3         3.9090   -3.2190    1.5460 C.ar      1 W04      0.000000
     19 HZ3         3.8130   -4.2960    1.5180 H         1 W04      0.000000
     20 CE3         2.7810   -2.4220    1.5030 C.ar      1 W04      0.000000
     21 HE3         1.7870   -2.8370    1.4370 H         1 W04      0.000000
     22 CD2         2.9400   -1.0350    1.5400 C.ar      1 W04      0.000000
     23 C           0.5510   -1.1980   -0.7660 C.1       1 W04      0.000000
     24 O           0.0240   -2.3060   -0.6670 O.2       1 W04      0.000000
@<TRIPOS>BOND
     1    1    2 1   
     2    1    3 1   
     3    3    4 1   
     4    3    5 1   
     5    3   23 1   
     6    5    6 1   
     7    5    7 1   
     8    5    8 1   
     9    8    9 1   
    10    8   22 1   
    11    9   10 1   
    12    9   11 1   
    13   11   12 1   
    14   11   13 1   
    15   13   14 1   
    16   13   22 1   
    17   14   15 1   
    18   14   16 1   
    19   16   17 1   
    20   16   18 1   
    21   18   19 1   
    22   18   20 1   
    23   20   21 1   
    24   20   22 1   
    25   23   24 1   
@<TRIPOS>SUBSTRUCTURE
     1 W04         1 TEMP              0 ****  ****    0 ROOT
