@<TRIPOS>MOLECULE
W05
   24    25     1     0     0
SMALL
No Charge or Current Charge


@<TRIPOS>ATOM
      1 N          -1.4580    0.0000    0.0000 N.2       1 W05      0.000000
      2 H          -1.9450   -0.0330    0.8890 H         1 W05      0.000000
      3 CA          0.0000    0.0000    0.0000 C.3       1 W05      0.000000
      4 HA          0.3540    0.8920   -0.5160 H         1 W05      0.000000
      5 CB          0.5360    0.0000    1.4330 C.3       1 W05      0.000000
      6 HB2         0.1370    0.8470    1.9900 H         1 W05      0.000000
      7 HB3         0.2250   -0.8960    1.9680 H         1 W05      0.000000
      8 CG          2.0300    0.0720    1.5140 C.2       1 W05      0.000000
      9 CD1         2.8840   -0.9480    1.8210 C.2       1 W05      0.000000
     10 HD1         2.5730   -1.9610    2.0590 H         1 W05      0.000000
     11 NE1         4.1830   -0.5020    1.7970 N.pl3     1 W05      0.000000
     12 HE1         5.0100   -1.0580    1.9880 H         1 W05      0.000000
     13 CE2         4.1850    0.8330    1.4690 C.ar      1 W05      0.000000
     14 CZ2         5.2520    1.7180    1.3220 C.ar      1 W05      0.000000
     15 HZ2         6.2780    1.4080    1.4640 H         1 W05      0.000000
     16 CH2         4.9580    3.0130    0.9830 C.ar      1 W05      0.000000
     17 HH2         5.7730    3.7160    0.8580 H         1 W05      0.000000
     18 CZ3         3.6300    3.4310    0.7940 C.ar      1 W05      0.000000
     19 HZ3         3.4450    4.4630    0.5290 H         1 W05      0.000000
     20 CE3         2.5720    2.5540    0.9390 C.ar      1 W05      0.000000
     21 HE3         1.5470    2.8630    0.8000 H         1 W05      0.000000
     22 CD2         2.8460    1.2280    1.2830 C.ar      1 W05      0.000000
     23 C           0.5510   -1.1980   -0.7660 C.1       1 W05      0.000000
     24 O           0.0240   -2.3060   -0.6670 O.2       1 W05      0.000000
@<TRIPOS>BOND
     1    1    2 1   
     2    1    3 1   
     3    3    4 1   
     4    3    5 1   
     5    3   23 1   
     6    5    6 1   
     7    5    7 1   
     8    5    8 1   
     9    8    9 1   
    10    8   22 1   
    11    9   10 1   
    12    9   11 1   
    13   11   12 1   
    14   11   13 1   
    15   13   14 1   
    16   13   22 1   
    17   14   15 1   
    18   14   16 1   
    19   16   17 1   
    20   16   18 1   
    21   18   19 1   
    22   18   20 1   
    23   20   21 1   
    24   20   22 1   
    25   23   24 1   
@<TRIPOS>SUBSTRUCTURE
     1 W05         1 TEMP              0 ****  ****    0 ROOT
