@<TRIPOS>MOLECULE
D01
   12    11     1     0     0
SMALL
No Charge or Current Charge


@<TRIPOS>ATOM
      1 N          -1.4580    0.0000    0.0000 N.2       1 D01      0.000000
      2 H          -1.9370   -0.7700   -0.4450 H         1 D01      0.000000
      3 CA          0.0000    0.0000    0.0000 C.3       1 D01      0.000000
      4 HA          0.3690    0.8900   -0.5100 H         1 D01      0.000000
      5 CB          0.5360    0.0000    1.4330 C.3       1 D01      0.000000
      6 HB2         0.0410   -0.8050    1.9760 H         1 D01      0.000000
      7 HB3         1.6070   -0.1960    1.3900 H         1 D01      0.000000
      8 CG          0.2920    1.3150    2.1470 C.2       1 D01      0.000000
      9 OD1        -0.0270    2.3120    1.4640 O.co2     1 D01      0.000000
     10 OD2         0.4190    1.3500    3.3880 O.co2     1 D01      0.000000
     11 C           0.5510   -1.1980   -0.7660 C.1       1 D01      0.000000
     12 O           0.0240   -2.3060   -0.6670 O.2       1 D01      0.000000
@<TRIPOS>BOND
     1    1    2 1   
     2    1    3 1   
     3    3    4 1   
     4    3    5 1   
     5    3   11 1   
     6    5    6 1   
     7    5    7 1   
     8    5    8 1   
     9    8    9 1   
    10    8   10 1   
    11   11   12 1   
@<TRIPOS>SUBSTRUCTURE
     1 D01         1 TEMP              0 ****  ****    0 ROOT
