@<TRIPOS>MOLECULE
I02
   19    18     1     0     0
SMALL
No Charge or Current Charge


@<TRIPOS>ATOM
      1 N          -1.4580    0.0000    0.0000 N.2       1 I02      0.000000
      2 H          -1.9370   -0.7650   -0.4530 H         1 I02      0.000000
      3 CA          0.0000    0.0000    0.0000 C.3       1 I02      0.000000
      4 HA          0.3460    0.8950   -0.5170 H         1 I02      0.000000
      5 CB          0.5640   -0.0150    1.4330 C.3       1 I02      0.000000
      6 HB          0.2540   -0.9450    1.9080 H         1 I02      0.000000
      7 CG2         2.0830    0.0600    1.4080 C.3       1 I02      0.000000
      8 HG21        2.3940    0.9900    0.9330 H         1 I02      0.000000
      9 HG22        2.4660    0.0280    2.4280 H         1 I02      0.000000
     10 HG23        2.4800   -0.7840    0.8450 H         1 I02      0.000000
     11 CG1         0.0320    1.1800    2.2280 C.3       1 I02      0.000000
     12 HG12       -1.0510    1.0740    2.2860 H         1 I02      0.000000
     13 HG13        0.4570    1.1170    3.2300 H         1 I02      0.000000
     14 CD1         0.3750    2.5200    1.6180 C.3       1 I02      0.000000
     15 HD11       -0.0500    2.5840    0.6160 H         1 I02      0.000000
     16 HD12       -0.0350    3.3180    2.2370 H         1 I02      0.000000
     17 HD13        1.4590    2.6270    1.5600 H         1 I02      0.000000
     18 C           0.5510   -1.1980   -0.7660 C.1       1 I02      0.000000
     19 O           0.0240   -2.3060   -0.6670 O.2       1 I02      0.000000
@<TRIPOS>BOND
     1    1    2 1   
     2    1    3 1   
     3    3    4 1   
     4    3    5 1   
     5    3   18 1   
     6    5    6 1   
     7    5    7 1   
     8    5   11 1   
     9    7    8 1   
    10    7    9 1   
    11    7   10 1   
    12   11   12 1   
    13   11   13 1   
    14   11   14 1   
    15   14   15 1   
    16   14   16 1   
    17   14   17 1   
    18   18   19 1   
@<TRIPOS>SUBSTRUCTURE
     1 I02         1 TEMP              0 ****  ****    0 ROOT
