@<TRIPOS>MOLECULE
I05
   19    18     1     0     0
SMALL
No Charge or Current Charge


@<TRIPOS>ATOM
      1 N          -1.4580    0.0000    0.0000 N.2       1 I05      0.000000
      2 H          -1.9370   -0.7650   -0.4530 H         1 I05      0.000000
      3 CA          0.0000    0.0000    0.0000 C.3       1 I05      0.000000
      4 HA          0.3460    0.8950   -0.5170 H         1 I05      0.000000
      5 CB          0.5640   -0.0150    1.4330 C.3       1 I05      0.000000
      6 HB          1.6510    0.0270    1.3680 H         1 I05      0.000000
      7 CG2         0.0570    1.1850    2.2180 C.3       1 I05      0.000000
      8 HG21       -1.0300    1.1440    2.2840 H         1 I05      0.000000
      9 HG22        0.4820    1.1700    3.2210 H         1 I05      0.000000
     10 HG23        0.3550    2.1030    1.7120 H         1 I05      0.000000
     11 CG1         0.1330   -1.2890    2.1630 C.3       1 I05      0.000000
     12 HG12       -0.9420   -1.2190    2.3280 H         1 I05      0.000000
     13 HG13        0.3450   -2.1290    1.5000 H         1 I05      0.000000
     14 CD1         0.8330   -1.5020    3.4860 C.3       1 I05      0.000000
     15 HD11        0.6220   -0.6630    4.1490 H         1 I05      0.000000
     16 HD12        0.4750   -2.4250    3.9430 H         1 I05      0.000000
     17 HD13        1.9090   -1.5730    3.3220 H         1 I05      0.000000
     18 C           0.5510   -1.1980   -0.7660 C.1       1 I05      0.000000
     19 O           0.0240   -2.3060   -0.6670 O.2       1 I05      0.000000
@<TRIPOS>BOND
     1    1    2 1   
     2    1    3 1   
     3    3    4 1   
     4    3    5 1   
     5    3   18 1   
     6    5    6 1   
     7    5    7 1   
     8    5   11 1   
     9    7    8 1   
    10    7    9 1   
    11    7   10 1   
    12   11   12 1   
    13   11   13 1   
    14   11   14 1   
    15   14   15 1   
    16   14   16 1   
    17   14   17 1   
    18   18   19 1   
@<TRIPOS>SUBSTRUCTURE
     1 I05         1 TEMP              0 ****  ****    0 ROOT
