@<TRIPOS>MOLECULE
P01
   20    20     1     0     0
SMALL
No Charge or Current Charge


@<TRIPOS>ATOM
      1 N          -1.4580    0.0000    0.0000 N.2       1 P01      0.000000
      2 H          -1.9370   -0.7700   -0.4450 H         1 P01      0.000000
      3 CA          0.0000    0.0000    0.0000 C.3       1 P01      0.000000
      4 HA          0.3690    0.8900   -0.5100 H         1 P01      0.000000
      5 CB          0.5360    0.0000    1.4330 C.3       1 P01      0.000000
      6 HB2         0.1140   -0.8350    1.9930 H         1 P01      0.000000
      7 HB3         1.6230   -0.0810    1.4240 H         1 P01      0.000000
      8 CG          0.2050    1.2450    2.2040 C.ar      1 P01      0.000000
      9 CD1         1.0050    2.3710    2.1070 C.ar      1 P01      0.000000
     10 HD1         1.8840    2.3470    1.4620 H         1 P01      0.000000
     11 CE1         0.7000    3.5170    2.8160 C.ar      1 P01      0.000000
     12 HE1         1.3400    4.3950    2.7290 H         1 P01      0.000000
     13 CZ         -0.4100    3.5510    3.6310 C.ar      1 P01      0.000000
     14 HZ         -0.6520    4.4540    4.1920 H         1 P01      0.000000
     15 CE2        -1.2150    2.4380    3.7360 C.ar      1 P01      0.000000
     16 HE2        -2.0940    2.4600    4.3800 H         1 P01      0.000000
     17 CD2        -0.9080    1.2940    3.0250 C.ar      1 P01      0.000000
     18 HD2        -1.5460    0.4140    3.1060 H         1 P01      0.000000
     19 C           0.5510   -1.1980   -0.7660 C.1       1 P01      0.000000
     20 O           0.0240   -2.3060   -0.6670 O.2       1 P01      0.000000
@<TRIPOS>BOND
     1    1    2 1   
     2    1    3 1   
     3    3    4 1   
     4    3    5 1   
     5    3   19 1   
     6    5    6 1   
     7    5    7 1   
     8    5    8 1   
     9    8    9 1   
    10    8   17 1   
    11    9   10 1   
    12    9   11 1   
    13   11   12 1   
    14   11   13 1   
    15   13   14 1   
    16   13   15 1   
    17   15   16 1   
    18   15   17 1   
    19   17   18 1   
    20   19   20 1   
@<TRIPOS>SUBSTRUCTURE
     1 P01         1 TEMP              0 ****  ****    0 ROOT
