@<TRIPOS>MOLECULE
P02
   20    20     1     0     0
SMALL
No Charge or Current Charge


@<TRIPOS>ATOM
      1 N          -1.4580    0.0000    0.0000 N.2       1 P02      0.000000
      2 H          -1.9370   -0.7700   -0.4450 H         1 P02      0.000000
      3 CA          0.0000    0.0000    0.0000 C.3       1 P02      0.000000
      4 HA          0.3690    0.8900   -0.5100 H         1 P02      0.000000
      5 CB          0.5360    0.0000    1.4330 C.3       1 P02      0.000000
      6 HB2         0.1150   -0.8350    1.9930 H         1 P02      0.000000
      7 HB3         1.6230   -0.0810    1.4230 H         1 P02      0.000000
      8 CG          0.2050    1.2450    2.2040 C.ar      1 P02      0.000000
      9 CD1         0.0580    2.4600    1.5560 C.ar      1 P02      0.000000
     10 HD1         0.1850    2.5060    0.4740 H         1 P02      0.000000
     11 CE1        -0.2470    3.6060    2.2650 C.ar      1 P02      0.000000
     12 HE1        -0.3590    4.5550    1.7400 H         1 P02      0.000000
     13 CZ         -0.4100    3.5510    3.6320 C.ar      1 P02      0.000000
     14 HZ         -0.6510    4.4540    4.1930 H         1 P02      0.000000
     15 CE2        -0.2660    2.3490    4.2890 C.ar      1 P02      0.000000
     16 HE2        -0.3920    2.3010    5.3710 H         1 P02      0.000000
     17 CD2         0.0380    1.2040    3.5770 C.ar      1 P02      0.000000
     18 HD2         0.1490    0.2520    4.0960 H         1 P02      0.000000
     19 C           0.5510   -1.1980   -0.7660 C.1       1 P02      0.000000
     20 O           0.0240   -2.3060   -0.6670 O.2       1 P02      0.000000
@<TRIPOS>BOND
     1    1    2 1   
     2    1    3 1   
     3    3    4 1   
     4    3    5 1   
     5    3   19 1   
     6    5    6 1   
     7    5    7 1   
     8    5    8 1   
     9    8    9 1   
    10    8   17 1   
    11    9   10 1   
    12    9   11 1   
    13   11   12 1   
    14   11   13 1   
    15   13   14 1   
    16   13   15 1   
    17   15   16 1   
    18   15   17 1   
    19   17   18 1   
    20   19   20 1   
@<TRIPOS>SUBSTRUCTURE
     1 P02         1 TEMP              0 ****  ****    0 ROOT
