@<TRIPOS>MOLECULE
P03
   20    20     1     0     0
SMALL
No Charge or Current Charge


@<TRIPOS>ATOM
      1 N          -1.4580    0.0000    0.0000 N.2       1 P03      0.000000
      2 H          -1.9370   -0.7700   -0.4450 H         1 P03      0.000000
      3 CA          0.0000    0.0000    0.0000 C.3       1 P03      0.000000
      4 HA          0.3690    0.8900   -0.5100 H         1 P03      0.000000
      5 CB          0.5360    0.0000    1.4330 C.3       1 P03      0.000000
      6 HB2         0.1500    0.8590    1.9820 H         1 P03      0.000000
      7 HB3         0.2380   -0.9180    1.9400 H         1 P03      0.000000
      8 CG          2.0330    0.0720    1.5200 C.ar      1 P03      0.000000
      9 CD1         2.6930    1.2800    1.3760 C.ar      1 P03      0.000000
     10 HD1         2.1130    2.1860    1.1980 H         1 P03      0.000000
     11 CE1         4.0710    1.3470    1.4560 C.ar      1 P03      0.000000
     12 HE1         4.5760    2.3060    1.3410 H         1 P03      0.000000
     13 CZ          4.8060    0.2030    1.6810 C.ar      1 P03      0.000000
     14 HZ          5.8930    0.2520    1.7450 H         1 P03      0.000000
     15 CE2         4.1620   -1.0050    1.8250 C.ar      1 P03      0.000000
     16 HE2         4.7400   -1.9120    2.0010 H         1 P03      0.000000
     17 CD2         2.7840   -1.0680    1.7460 C.ar      1 P03      0.000000
     18 HD2         2.2740   -2.0240    1.8620 H         1 P03      0.000000
     19 C           0.5510   -1.1980   -0.7660 C.1       1 P03      0.000000
     20 O           0.0240   -2.3060   -0.6670 O.2       1 P03      0.000000
@<TRIPOS>BOND
     1    1    2 1   
     2    1    3 1   
     3    3    4 1   
     4    3    5 1   
     5    3   19 1   
     6    5    6 1   
     7    5    7 1   
     8    5    8 1   
     9    8    9 1   
    10    8   17 1   
    11    9   10 1   
    12    9   11 1   
    13   11   12 1   
    14   11   13 1   
    15   13   14 1   
    16   13   15 1   
    17   15   16 1   
    18   15   17 1   
    19   17   18 1   
    20   19   20 1   
@<TRIPOS>SUBSTRUCTURE
     1 P03         1 TEMP              0 ****  ****    0 ROOT
