@<TRIPOS>MOLECULE
K27
   21    20     1     0     0
SMALL
No Charge or Current Charge


@<TRIPOS>ATOM
      1 N          -1.4580    0.0000    0.0000 N.2       1 K27      0.000000
      2 H          -1.9370   -0.7700   -0.4450 H         1 K27      0.000000
      3 CA          0.0000    0.0000    0.0000 C.3       1 K27      0.000000
      4 HA          0.3690    0.8900   -0.5100 H         1 K27      0.000000
      5 CB          0.5360    0.0000    1.4330 C.3       1 K27      0.000000
      6 HB2         0.1510   -0.8960    1.9200 H         1 K27      0.000000
      7 HB3         1.6230   -0.0600    1.3700 H         1 K27      0.000000
      8 CG          0.1430    1.2250    2.2420 C.3       1 K27      0.000000
      9 HG2        -0.9390    1.3470    2.1850 H         1 K27      0.000000
     10 HG3         0.4360    1.0650    3.2800 H         1 K27      0.000000
     11 CD          0.8220    2.4770    1.7120 C.3       1 K27      0.000000
     12 HD2         1.9010    2.3360    1.7670 H         1 K27      0.000000
     13 HD3         0.5270    2.6180    0.6720 H         1 K27      0.000000
     14 CE          0.4290    3.7030    2.5210 C.3       1 K27      0.000000
     15 HE2        -0.6530    3.8180    2.4630 H         1 K27      0.000000
     16 HE3         0.7210    3.5360    3.5580 H         1 K27      0.000000
     17 NZ          1.0870    4.9390    2.0130 N.3       1 K27      0.000000
     18 HZ2         0.8010    5.7280    2.5750 H         1 K27      0.000000
     19 HZ3         2.0900    4.8330    2.0670 H         1 K27      0.000000
     20 C           0.5510   -1.1980   -0.7660 C.1       1 K27      0.000000
     21 O           0.0240   -2.3060   -0.6670 O.2       1 K27      0.000000
@<TRIPOS>BOND
     1    1    2 1   
     2    1    3 1   
     3    3    4 1   
     4    3    5 1   
     5    3   20 1   
     6    5    6 1   
     7    5    7 1   
     8    5    8 1   
     9    8    9 1   
    10    8   10 1   
    11    8   11 1   
    12   11   12 1   
    13   11   13 1   
    14   11   14 1   
    15   14   15 1   
    16   14   16 1   
    17   14   17 1   
    18   17   18 1   
    19   17   19 1   
    20   20   21 1   
@<TRIPOS>SUBSTRUCTURE
     1 K27         1 TEMP              0 ****  ****    0 ROOT
