@<TRIPOS>MOLECULE
K32
   21    20     1     0     0
SMALL
No Charge or Current Charge


@<TRIPOS>ATOM
      1 N          -1.4580    0.0000    0.0000 N.2       1 K32      0.000000
      2 H          -1.9370   -0.7700   -0.4450 H         1 K32      0.000000
      3 CA          0.0000    0.0000    0.0000 C.3       1 K32      0.000000
      4 HA          0.3690    0.8900   -0.5100 H         1 K32      0.000000
      5 CB          0.5360    0.0000    1.4330 C.3       1 K32      0.000000
      6 HB2         0.0980    0.8600    1.9400 H         1 K32      0.000000
      7 HB3         0.1860   -0.9170    1.9070 H         1 K32      0.000000
      8 CG          2.0510    0.0730    1.5290 C.3       1 K32      0.000000
      9 HG2         2.4740   -0.7880    1.0110 H         1 K32      0.000000
     10 HG3         2.3860    0.9900    1.0440 H         1 K32      0.000000
     11 CD          2.5130    0.0690    2.9770 C.3       1 K32      0.000000
     12 HD2         2.0760    0.9300    3.4840 H         1 K32      0.000000
     13 HD3         2.1630   -0.8480    3.4510 H         1 K32      0.000000
     14 CE          4.0290    0.1410    3.0720 C.3       1 K32      0.000000
     15 HE2         4.3120    0.0320    4.1190 H         1 K32      0.000000
     16 HE3         4.4470   -0.6840    2.4960 H         1 K32      0.000000
     17 NZ          4.5570    1.4310    2.5470 N.3       1 K32      0.000000
     18 HZ2         5.5640    1.4400    2.6270 H         1 K32      0.000000
     19 HZ3         4.2960    1.5320    1.5770 H         1 K32      0.000000
     20 C           0.5510   -1.1980   -0.7660 C.1       1 K32      0.000000
     21 O           0.0240   -2.3060   -0.6670 O.2       1 K32      0.000000
@<TRIPOS>BOND
     1    1    2 1   
     2    1    3 1   
     3    3    4 1   
     4    3    5 1   
     5    3   20 1   
     6    5    6 1   
     7    5    7 1   
     8    5    8 1   
     9    8    9 1   
    10    8   10 1   
    11    8   11 1   
    12   11   12 1   
    13   11   13 1   
    14   11   14 1   
    15   14   15 1   
    16   14   16 1   
    17   14   17 1   
    18   17   18 1   
    19   17   19 1   
    20   20   21 1   
@<TRIPOS>SUBSTRUCTURE
     1 K32         1 TEMP              0 ****  ****    0 ROOT
